*Heading
** Job name: Job-1 Model name: Model-1
** Generated by: Abaqus/CAE 2024
*Preprint, echo=NO, model=NO, history=NO, contact=NO
**
** PARTS
**
*Part, name=Analise-1
*Node
      1,  0.125409499,   -3166.6001
      2,  0.108445004,   -3166.6001
      3,  0.108445004,       -3500.
      4,  0.125409499,       -3500.
      5,  0.108445004,  -2833.30005
      6,  0.125409499,  -2833.30005
      7,  0.125409499,       -2500.
      8,  0.108445004,       -2500.
      9,  0.658809483,   -3166.6001
     10,  0.658809483,       -3500.
     11,          15.,       -3500.
     12,          15.,   -3166.6001
     13,  0.131759495,       -3500.
     14,  0.131759495,   -3166.6001
     15,  0.658809483,  -2833.30005
     16,          15.,  -2833.30005
     17,          15.,       -2500.
     18,  0.658809483,       -2500.
     19,  0.131759495,  -2833.30005
     20,  0.131759495,       -2500.
** ... 184 like lines cut
*Element, type=CAX4
 1,  1,  2, 21, 40
 2, 40, 21, 22, 39
 3, 39, 22, 23, 38
 4, 38, 23, 24, 37
 5, 37, 24, 25, 36
 6, 36, 25, 26, 35
 7, 35, 26, 27, 34
 8, 34, 27, 28, 33
 9, 33, 28, 29, 32
10, 32, 29, 30, 31
11, 31, 30,  3,  4
12,  5,  6, 41, 60
13, 60, 41, 42, 59
14, 59, 42, 43, 58
15, 58, 43, 44, 57
16, 57, 44, 45, 56
17, 56, 45, 46, 55
18, 55, 46, 47, 54
19, 54, 47, 48, 53
20, 53, 48, 49, 52
** ... 145 like lines cut
*Node
    205,           0.,       -2500.,           0.
*Nset, nset=Analise-1-RefPt_, internal
205, 
*Nset, nset=ALL, generate
   1,  204,    1
*Elset, elset=ALL, generate
   1,  165,    1
*Nset, nset=ALLROCK
   9,  10,  11,  12,  13,  14,  15,  16,  17,  18,  19,  20,  61,  62,  63,  64
  65,  66,  67,  68,  69,  70,  71,  72,  73,  74,  75,  76,  77,  78,  79,  80
  81,  82,  83,  84,  85,  86,  87,  88,  89,  90,  91,  92, 113, 114, 115, 116
 117, 118, 119, 120, 121, 122, 123, 124, 125, 126, 127, 128, 129, 130, 131, 132
 133, 134, 135, 136, 137, 138, 139, 140, 141, 142, 143, 144, 145, 146, 147, 148
 149, 150, 151, 152, 153, 154, 155, 156, 157, 158, 159, 160, 161, 162, 163, 164
 165, 166, 167, 168, 169, 170, 171, 172, 173, 174, 175, 176, 177, 178, 179, 180
 181, 182, 183, 184, 185, 186, 187, 188, 189, 190, 191, 192, 193, 194, 195, 196
 197, 198, 199, 200, 201, 202, 203, 204
*Elset, elset=ALLROCK
  23,  24,  25,  26,  27,  28,  29,  30,  31,  32,  33,  34,  35,  36,  37,  38
  39,  40,  41,  42,  43,  44,  67,  68,  69,  70,  71,  72,  73,  74,  75,  76
  77,  78,  79,  80,  81,  82,  83,  84,  85,  86,  87,  88, 100, 101, 102, 103
 104, 105, 106, 107, 108, 109, 110, 111, 112, 113, 114, 115, 116, 117, 118, 119
 120, 121, 122, 123, 124, 125, 126, 127, 128, 129, 130, 131, 132, 144, 145, 146
 147, 148, 149, 150, 151, 152, 153, 154, 155, 156, 157, 158, 159, 160, 161, 162
 163, 164, 165
*Nset, nset=FASEI
   1,   2,   3,   4,   5,   6,   7,   8,  13,  14,  19,  20,  21,  22,  23,  24
  25,  26,  27,  28,  29,  30,  31,  32,  33,  34,  35,  36,  37,  38,  39,  40
  41,  42,  43,  44,  45,  46,  47,  48,  49,  50,  51,  52,  53,  54,  55,  56
  57,  58,  59,  60,  83,  84,  85,  86,  87,  88,  89,  90,  91,  92,  93,  94
  95,  96,  97,  98,  99, 100, 101, 102, 103, 104, 105, 106, 107, 108, 109, 110
 111, 112, 135, 136, 137, 138, 139, 140, 141, 142, 143, 144, 165, 166, 167, 168
 169, 170, 171, 172, 173, 174
*Elset, elset=FASEI
   1,   2,   3,   4,   5,   6,   7,   8,   9,  10,  11,  12,  13,  14,  15,  16
  17,  18,  19,  20,  21,  22,  45,  46,  47,  48,  49,  50,  51,  52,  53,  54
  55,  56,  57,  58,  59,  60,  61,  62,  63,  64,  65,  66,  89,  90,  91,  92
  93,  94,  95,  96,  97,  98,  99, 133, 134, 135, 136, 137, 138, 139, 140, 141
 142, 143
*Nset, nset=FASEI_ANNULAR
   1,   4,   6,   7,  13,  14,  19,  20,  31,  32,  33,  34,  35,  36,  37,  38
  39,  40,  41,  42,  43,  44,  45,  46,  47,  48,  49,  50,  83,  84,  85,  86
  87,  88,  89,  90,  91,  92,  93,  94,  95,  96,  97,  98,  99, 100, 101, 102
 135, 136, 137, 138, 139, 140, 141, 142, 143, 144, 165, 166, 167, 168, 169, 170
 171, 172, 173, 174
*Elset, elset=FASEI_ANNULAR
  45,  46,  47,  48,  49,  50,  51,  52,  53,  54,  55,  89,  90,  91,  92,  93
  94,  95,  96,  97,  98,  99, 133, 134, 135, 136, 137, 138, 139, 140, 141, 142
 143,
*Nset, nset=FASEI_ANNULAR_BASE
  4, 13
*Elset, elset=FASEI_ANNULAR_BASE
 55,
*Nset, nset=FASEI_ANNULAR_ID
   1,   4,   6,   7,  31,  32,  33,  34,  35,  36,  37,  38,  39,  40,  41,  42
  43,  44,  45,  46,  47,  48,  49,  50,  93,  94,  95,  96,  97,  98,  99, 100
 101, 102
*Elset, elset=FASEI_ANNULAR_ID
   1,   2,   3,   4,   5,   6,   7,   8,   9,  10,  11,  12,  13,  14,  15,  16
  17,  18,  19,  20,  21,  22,  45,  46,  47,  48,  49,  50,  51,  52,  53,  54
  55,  56,  57,  58,  59,  60,  61,  62,  63,  64,  65,  66,  89,  90,  91,  92
  93,  94,  95,  96,  97,  98,  99, 133, 134, 135, 136, 137, 138, 139, 140, 141
 142, 143
*Nset, nset=FASEI_ANNULAR_OD
  13,  14,  19,  20,  83,  84,  85,  86,  87,  88,  89,  90,  91,  92, 135, 136
 137, 138, 139, 140, 141, 142, 143, 144, 165, 166, 167, 168, 169, 170, 171, 172
 173, 174
*Elset, elset=FASEI_ANNULAR_OD
  45,  46,  47,  48,  49,  50,  51,  52,  53,  54,  55,  89,  90,  91,  92,  93
  94,  95,  96,  97,  98,  99, 122, 123, 124, 125, 126, 127, 128, 129, 130, 131
 132, 133, 134, 135, 136, 137, 138, 139, 140, 141, 142, 143, 144, 145, 146, 147
 148, 149, 150, 151, 152, 153, 154, 155, 156, 157, 158, 159, 160, 161, 162, 163
 164, 165
*Nset, nset=FASEI_ANNULAR_TOP
  7, 20
*Elset, elset=FASEI_ANNULAR_TOP
 89,
*Nset, nset=FASEI_ANNULAR_TT
  1,  4,  6,  7, 13, 14, 19, 20
*Elset, elset=FASEI_ANNULAR_TT
  45,  55,  89,  99, 133, 143
*Nset, nset=FASEI_COMPLETED_WELL
   2,   3,   5,   8,  21,  22,  23,  24,  25,  26,  27,  28,  29,  30,  51,  52
  53,  54,  55,  56,  57,  58,  59,  60, 103, 104, 105, 106, 107, 108, 109, 110
 111, 112
*Elset, elset=FASEI_COMPLETED_WELL
  1,  2,  3,  4,  5,  6,  7,  8,  9, 10, 11, 12, 13, 14, 15, 16
 17, 18, 19, 20, 21, 22, 56, 57, 58, 59, 60, 61, 62, 63, 64, 65
 66,
*Nset, nset=FASEI_FLUIDO
   1,   4,   6,   7,  13,  14,  19,  20,  31,  32,  33,  34,  35,  36,  37,  38
  39,  40,  41,  42,  43,  44,  45,  46,  47,  48,  49,  50,  83,  84,  85,  86
  87,  88,  89,  90,  91,  92,  93,  94,  95,  96,  97,  98,  99, 100, 101, 102
 135, 136, 137, 138, 139, 140, 141, 142, 143, 144, 165, 166, 167, 168, 169, 170
 171, 172, 173, 174
*Elset, elset=FASEI_FLUIDO
  45,  46,  47,  48,  49,  50,  51,  52,  53,  54,  55,  89,  90,  91,  92,  93
  94,  95,  96,  97,  98,  99, 133, 134, 135, 136, 137, 138, 139, 140, 141, 142
 143,
*Nset, nset=FASEI_FLUIDO_BASE
  4, 13
*Elset, elset=FASEI_FLUIDO_BASE
 55,
*Nset, nset=FASEI_FLUIDO_ID
   1,   4,   6,   7,  31,  32,  33,  34,  35,  36,  37,  38,  39,  40,  41,  42
  43,  44,  45,  46,  47,  48,  49,  50,  93,  94,  95,  96,  97,  98,  99, 100
 101, 102
*Elset, elset=FASEI_FLUIDO_ID
   1,   2,   3,   4,   5,   6,   7,   8,   9,  10,  11,  12,  13,  14,  15,  16
  17,  18,  19,  20,  21,  22,  45,  46,  47,  48,  49,  50,  51,  52,  53,  54
  55,  56,  57,  58,  59,  60,  61,  62,  63,  64,  65,  66,  89,  90,  91,  92
  93,  94,  95,  96,  97,  98,  99, 133, 134, 135, 136, 137, 138, 139, 140, 141
 142, 143
*Nset, nset=FASEI_FLUIDO_OD
  13,  14,  19,  20,  83,  84,  85,  86,  87,  88,  89,  90,  91,  92, 135, 136
 137, 138, 139, 140, 141, 142, 143, 144, 165, 166, 167, 168, 169, 170, 171, 172
 173, 174
*Elset, elset=FASEI_FLUIDO_OD
  45,  46,  47,  48,  49,  50,  51,  52,  53,  54,  55,  89,  90,  91,  92,  93
  94,  95,  96,  97,  98,  99, 122, 123, 124, 125, 126, 127, 128, 129, 130, 131
 132, 133, 134, 135, 136, 137, 138, 139, 140, 141, 142, 143, 144, 145, 146, 147
 148, 149, 150, 151, 152, 153, 154, 155, 156, 157, 158, 159, 160, 161, 162, 163
 164, 165
*Nset, nset=FASEI_FLUIDO_TOP
  7, 20
*Elset, elset=FASEI_FLUIDO_TOP
 89,
*Nset, nset=FASEI_OPEN_WELL
  13,  14,  19,  20,  83,  84,  85,  86,  87,  88,  89,  90,  91,  92, 135, 136
 137, 138, 139, 140, 141, 142, 143, 144, 165, 166, 167, 168, 169, 170, 171, 172
 173, 174
*Elset, elset=FASEI_OPEN_WELL
  45,  46,  47,  48,  49,  50,  51,  52,  53,  54,  55,  89,  90,  91,  92,  93
  94,  95,  96,  97,  98,  99, 122, 123, 124, 125, 126, 127, 128, 129, 130, 131
 132, 133, 134, 135, 136, 137, 138, 139, 140, 141, 142, 143, 144, 145, 146, 147
 148, 149, 150, 151, 152, 153, 154, 155, 156, 157, 158, 159, 160, 161, 162, 163
 164, 165
*Nset, nset=FASEI_REV
   1,   2,   3,   4,   5,   6,   7,   8,  21,  22,  23,  24,  25,  26,  27,  28
  29,  30,  31,  32,  33,  34,  35,  36,  37,  38,  39,  40,  41,  42,  43,  44
  45,  46,  47,  48,  49,  50,  51,  52,  53,  54,  55,  56,  57,  58,  59,  60
  93,  94,  95,  96,  97,  98,  99, 100, 101, 102, 103, 104, 105, 106, 107, 108
 109, 110, 111, 112
*Elset, elset=FASEI_REV
  1,  2,  3,  4,  5,  6,  7,  8,  9, 10, 11, 12, 13, 14, 15, 16
 17, 18, 19, 20, 21, 22, 56, 57, 58, 59, 60, 61, 62, 63, 64, 65
 66,
*Nset, nset=FASEI_REV_ABOVE_TOC
   1,   2,   3,   4,   5,   6,   7,   8,  21,  22,  23,  24,  25,  26,  27,  28
  29,  30,  31,  32,  33,  34,  35,  36,  37,  38,  39,  40,  41,  42,  43,  44
  45,  46,  47,  48,  49,  50,  51,  52,  53,  54,  55,  56,  57,  58,  59,  60
  93,  94,  95,  96,  97,  98,  99, 100, 101, 102, 103, 104, 105, 106, 107, 108
 109, 110, 111, 112
*Elset, elset=FASEI_REV_ABOVE_TOC
  1,  2,  3,  4,  5,  6,  7,  8,  9, 10, 11, 12, 13, 14, 15, 16
 17, 18, 19, 20, 21, 22, 56, 57, 58, 59, 60, 61, 62, 63, 64, 65
 66,
*Nset, nset=FASEI_REV_BASE
 3, 4
*Elset, elset=FASEI_REV_BASE
 11,
*Nset, nset=FASEI_REV_ID
   2,   3,   5,   8,  21,  22,  23,  24,  25,  26,  27,  28,  29,  30,  51,  52
  53,  54,  55,  56,  57,  58,  59,  60, 103, 104, 105, 106, 107, 108, 109, 110
 111, 112
*Elset, elset=FASEI_REV_ID
  1,  2,  3,  4,  5,  6,  7,  8,  9, 10, 11, 12, 13, 14, 15, 16
 17, 18, 19, 20, 21, 22, 56, 57, 58, 59, 60, 61, 62, 63, 64, 65
 66,
*Nset, nset=FASEI_REV_OD
   1,   4,   6,   7,  31,  32,  33,  34,  35,  36,  37,  38,  39,  40,  41,  42
  43,  44,  45,  46,  47,  48,  49,  50,  93,  94,  95,  96,  97,  98,  99, 100
 101, 102
*Elset, elset=FASEI_REV_OD
   1,   2,   3,   4,   5,   6,   7,   8,   9,  10,  11,  12,  13,  14,  15,  16
  17,  18,  19,  20,  21,  22,  45,  46,  47,  48,  49,  50,  51,  52,  53,  54
  55,  56,  57,  58,  59,  60,  61,  62,  63,  64,  65,  66,  89,  90,  91,  92
  93,  94,  95,  96,  97,  98,  99, 133, 134, 135, 136, 137, 138, 139, 140, 141
 142, 143
*Nset, nset=FASEI_REV_TOP
 7, 8
*Elset, elset=FASEI_REV_TOP
 22,
*Nset, nset=FASEI_REV_TT, generate
 1,  8,  1
*Elset, elset=FASEI_REV_TT
  1, 11, 12, 22, 56, 66
*Nset, nset=FASEI_SLAVE
   9,  10,  13,  14,  15,  18,  19,  20,  61,  62,  63,  64,  65,  66,  67,  68
  69,  70,  83,  84,  85,  86,  87,  88,  89,  90,  91,  92, 125, 126, 127, 128
 129, 130, 131, 132, 133, 134, 135, 136, 137, 138, 139, 140, 141, 142, 143, 144
 155, 156, 157, 158, 159, 160, 161, 162, 163, 164, 165, 166, 167, 168, 169, 170
 171, 172, 173, 174
*Elset, elset=FASEI_SLAVE
 122, 123, 124, 125, 126, 127, 128, 129, 130, 131, 132, 144, 145, 146, 147, 148
 149, 150, 151, 152, 153, 154, 155, 156, 157, 158, 159, 160, 161, 162, 163, 164
 165,
*Nset, nset=FASEI_WELL
  13,  14,  19,  20,  83,  84,  85,  86,  87,  88,  89,  90,  91,  92, 135, 136
 137, 138, 139, 140, 141, 142, 143, 144, 165, 166, 167, 168, 169, 170, 171, 172
 173, 174
*Elset, elset=FASEI_WELL
  45,  46,  47,  48,  49,  50,  51,  52,  53,  54,  55,  89,  90,  91,  92,  93
  94,  95,  96,  97,  98,  99, 122, 123, 124, 125, 126, 127, 128, 129, 130, 131
 132, 133, 134, 135, 136, 137, 138, 139, 140, 141, 142, 143, 144, 145, 146, 147
 148, 149, 150, 151, 152, 153, 154, 155, 156, 157, 158, 159, 160, 161, 162, 163
 164, 165
*Nset, nset=FASEI_WELL_CIMENTO_BASE
  13,  14,  19,  20,  83,  84,  85,  86,  87,  88,  89,  90,  91,  92, 135, 136
 137, 138, 139, 140, 141, 142, 143, 144, 165, 166, 167, 168, 169, 170, 171, 172
 173, 174
*Elset, elset=FASEI_WELL_CIMENTO_BASE
  45,  46,  47,  48,  49,  50,  51,  52,  53,  54,  55,  89,  90,  91,  92,  93
  94,  95,  96,  97,  98,  99, 122, 123, 124, 125, 126, 127, 128, 129, 130, 131
 132, 133, 134, 135, 136, 137, 138, 139, 140, 141, 142, 143, 144, 145, 146, 147
 148, 149, 150, 151, 152, 153, 154, 155, 156, 157, 158, 159, 160, 161, 162, 163
 164, 165
*Nset, nset=L1-I
  15,  16,  17,  18,  19,  20, 113, 114, 115, 116, 117, 118, 119, 120, 121, 122
 123, 124, 125, 126, 127, 128, 129, 130, 131, 132, 133, 134, 135, 136, 137, 138
 139, 140, 141, 142, 143, 144, 185, 186, 187, 188, 189, 190, 191, 192, 193, 194
*Elset, elset=L1-I
  67,  68,  69,  70,  71,  72,  73,  74,  75,  76,  77,  78,  79,  80,  81,  82
  83,  84,  85,  86,  87,  88, 144, 145, 146, 147, 148, 149, 150, 151, 152, 153
 154,
*Nset, nset=L1-I_BASE
  15,  16,  19, 113
*Elset, elset=L1-I_BASE
  67,  68, 120, 121, 154, 155
*Nset, nset=L1-I_ID
  19,  20, 135, 136, 137, 138, 139, 140, 141, 142, 143, 144
*Elset, elset=L1-I_ID
  89,  90,  91,  92,  93,  94,  95,  96,  97,  98,  99, 144, 145, 146, 147, 148
 149, 150, 151, 152, 153, 154
*Nset, nset=L1-I_OD
  16,  17, 114, 115, 116, 117, 118, 119, 120, 121, 122, 123
*Elset, elset=L1-I_OD, generate
 68,  88,   2
*Nset, nset=L1-I_TOP
  17,  18,  20, 124
*Elset, elset=L1-I_TOP
  87,  88, 144
*Nset, nset=L2-I
   9,  12,  14,  15,  16,  19,  82, 113, 145, 146, 147, 148, 149, 150, 151, 152
 153, 154, 155, 156, 157, 158, 159, 160, 161, 162, 163, 164, 165, 166, 167, 168
 169, 170, 171, 172, 173, 174, 195, 196, 197, 198, 199, 200, 201, 202, 203, 204
*Elset, elset=L2-I
 100, 101, 102, 103, 104, 105, 106, 107, 108, 109, 110, 111, 112, 113, 114, 115
 116, 117, 118, 119, 120, 121, 155, 156, 157, 158, 159, 160, 161, 162, 163, 164
 165,
*Nset, nset=L2-I_BASE
  9, 12, 14, 82
*Elset, elset=L2-I_BASE
  23,  34, 100, 101, 122, 165
*Nset, nset=L2-I_ID
  14,  19, 165, 166, 167, 168, 169, 170, 171, 172, 173, 174
*Elset, elset=L2-I_ID
 133, 134, 135, 136, 137, 138, 139, 140, 141, 142, 143, 155, 156, 157, 158, 159
 160, 161, 162, 163, 164, 165
*Nset, nset=L2-I_OD
  12,  16, 145, 146, 147, 148, 149, 150, 151, 152, 153, 154
*Elset, elset=L2-I_OD, generate
 101,  121,    2
*Nset, nset=L2-I_TOP
  15,  16,  19, 113
*Elset, elset=L2-I_TOP
  67,  68, 120, 121, 154, 155
*Nset, nset=L3-I
   9,  10,  11,  12,  13,  14,  61,  62,  63,  64,  65,  66,  67,  68,  69,  70
  71,  72,  73,  74,  75,  76,  77,  78,  79,  80,  81,  82,  83,  84,  85,  86
  87,  88,  89,  90,  91,  92, 175, 176, 177, 178, 179, 180, 181, 182, 183, 184
*Elset, elset=L3-I
  23,  24,  25,  26,  27,  28,  29,  30,  31,  32,  33,  34,  35,  36,  37,  38
  39,  40,  41,  42,  43,  44, 122, 123, 124, 125, 126, 127, 128, 129, 130, 131
 132,
*Nset, nset=L3-I_BASE
 10, 11, 13, 71
*Elset, elset=L3-I_BASE
  33,  44, 132
*Nset, nset=L3-I_ID
 13, 14, 83, 84, 85, 86, 87, 88, 89, 90, 91, 92
*Elset, elset=L3-I_ID
  45,  46,  47,  48,  49,  50,  51,  52,  53,  54,  55, 122, 123, 124, 125, 126
 127, 128, 129, 130, 131, 132
*Nset, nset=L3-I_OD
 11, 12, 72, 73, 74, 75, 76, 77, 78, 79, 80, 81
*Elset, elset=L3-I_OD, generate
 34,  44,   1
*Nset, nset=L3-I_TOP
  9, 12, 14, 82
*Elset, elset=L3-I_TOP
  23,  34, 100, 101, 122, 165
*Nset, nset=MESH_TT_ANNULARS
  1,  4,  6,  7, 13, 14, 19, 20
*Elset, elset=MESH_TT_ANNULARS
  45,  55,  89,  99, 133, 143
*Nset, nset=MESH_TT_PIPES, generate
 1,  8,  1
*Elset, elset=MESH_TT_PIPES
  1, 11, 12, 22, 56, 66
*Nset, nset=MESH_TT_ROCK_FAR
   9,  10,  11,  12,  15,  16,  17,  18,  71,  82, 113, 124
*Elset, elset=MESH_TT_ROCK_FAR
  23,  33,  34,  44,  67,  68,  87,  88, 100, 101, 120, 121
*Nset, nset=MESH_TT_ROCK_NEAR
  9, 10, 13, 14, 15, 18, 19, 20
*Elset, elset=MESH_TT_ROCK_NEAR
 122, 132, 144, 154, 155, 165
*Nset, nset=MESH_VERTICAL
   1,   2,   3,   4,   5,   6,   7,   8,   9,  10,  11,  12,  13,  14,  15,  16
  17,  18,  19,  20,  21,  22,  23,  24,  25,  26,  27,  28,  29,  30,  31,  32
  33,  34,  35,  36,  37,  38,  39,  40,  41,  42,  43,  44,  45,  46,  47,  48
  49,  50,  51,  52,  53,  54,  55,  56,  57,  58,  59,  60,  61,  62,  63,  64
  65,  66,  67,  68,  69,  70,  72,  73,  74,  75,  76,  77,  78,  79,  80,  81
  83,  84,  85,  86,  87,  88,  89,  90,  91,  92,  93,  94,  95,  96,  97,  98
  99, 100, 101, 102, 103, 104, 105, 106, 107, 108, 109, 110, 111, 112, 114, 115
 116, 117, 118, 119, 120, 121, 122, 123, 125, 126, 127, 128, 129, 130, 131, 132
 133, 134, 135, 136, 137, 138, 139, 140, 141, 142, 143, 144, 145, 146, 147, 148
 149, 150, 151, 152, 153, 154, 155, 156, 157, 158, 159, 160, 161, 162, 163, 164
 165, 166, 167, 168, 169, 170, 171, 172, 173, 174
*Elset, elset=MESH_VERTICAL, generate
   1,  165,    1
*Nset, nset=REFPT
 205,
*Nset, nset=ROCK_BC
  11,  12,  16,  17,  72,  73,  74,  75,  76,  77,  78,  79,  80,  81, 114, 115
 116, 117, 118, 119, 120, 121, 122, 123, 145, 146, 147, 148, 149, 150, 151, 152
 153, 154
*Elset, elset=ROCK_BC
  34,  35,  36,  37,  38,  39,  40,  41,  42,  43,  44,  68,  70,  72,  74,  76
  78,  80,  82,  84,  86,  88, 101, 103, 105, 107, 109, 111, 113, 115, 117, 119
 121,
*Nset, nset=ROCK_OUTPUT
   9,  10,  13,  14,  15,  18,  19,  20,  61,  62,  63,  64,  65,  66,  67,  68
  69,  70,  83,  84,  85,  86,  87,  88,  89,  90,  91,  92, 125, 126, 127, 128
 129, 130, 131, 132, 133, 134, 135, 136, 137, 138, 139, 140, 141, 142, 143, 144
 155, 156, 157, 158, 159, 160, 161, 162, 163, 164, 165, 166, 167, 168, 169, 170
 171, 172, 173, 174
*Elset, elset=ROCK_OUTPUT
 122, 123, 124, 125, 126, 127, 128, 129, 130, 131, 132, 144, 145, 146, 147, 148
 149, 150, 151, 152, 153, 154, 155, 156, 157, 158, 159, 160, 161, 162, 163, 164
 165,
*Nset, nset=YSYM_BASE
  3,  4, 10, 11, 13, 71
*Elset, elset=YSYM_BASE
  11,  33,  44,  55, 132
*Nset, nset=YSYM_TOP
   7,   8,  17,  18,  20, 124
*Elset, elset=YSYM_TOP
  22,  87,  88,  89, 144
*Elset, elset=_FASEI_ANNULAR_S4, internal
  1,  2,  3,  4,  5,  6,  7,  8,  9, 10, 11, 89
*Elset, elset=_FASEI_ANNULAR_S2, internal
  12,  13,  14,  15,  16,  17,  18,  19,  20,  21,  22,  55,  56,  57,  58,  59
  60,  61,  62,  63,  64,  65,  66, 155, 156, 157, 158, 159, 160, 161, 162, 163
 164, 165
*Elset, elset=_FASEI_ANNULAR_S1, internal
 122, 123, 124, 125, 126, 127, 128, 129, 130, 131, 132, 144, 145, 146, 147, 148
 149, 150, 151, 152, 153, 154
*Surface, type=ELEMENT, name=FASEI_ANNULAR
_FASEI_ANNULAR_S4, S4
_FASEI_ANNULAR_S2, S2
_FASEI_ANNULAR_S1, S1
*Elset, elset=_FASEI_COMPLETED_WELL_S2, internal, generate
  1,  11,   1
*Elset, elset=_FASEI_COMPLETED_WELL_S4, internal
 12, 13, 14, 15, 16, 17, 18, 19, 20, 21, 22, 56, 57, 58, 59, 60
 61, 62, 63, 64, 65, 66
*Surface, type=ELEMENT, name=FASEI_COMPLETED_WELL
_FASEI_COMPLETED_WELL_S2, S2
_FASEI_COMPLETED_WELL_S4, S4
*Elset, elset=_FASEI_FLUIDO_S4, internal, generate
  1,  11,   1
*Elset, elset=_FASEI_FLUIDO_S2, internal
  12,  13,  14,  15,  16,  17,  18,  19,  20,  21,  22,  56,  57,  58,  59,  60
  61,  62,  63,  64,  65,  66, 155, 156, 157, 158, 159, 160, 161, 162, 163, 164
 165,
*Elset, elset=_FASEI_FLUIDO_S1, internal
 122, 123, 124, 125, 126, 127, 128, 129, 130, 131, 132, 144, 145, 146, 147, 148
 149, 150, 151, 152, 153, 154
*Surface, type=ELEMENT, name=FASEI_FLUIDO
_FASEI_FLUIDO_S4, S4
_FASEI_FLUIDO_S2, S2
_FASEI_FLUIDO_S1, S1
*Elset, elset=_FASEI_MASTER_S4, internal, generate
  1,  11,   1
*Elset, elset=_FASEI_MASTER_S2, internal
 12, 13, 14, 15, 16, 17, 18, 19, 20, 21, 22, 56, 57, 58, 59, 60
 61, 62, 63, 64, 65, 66
*Surface, type=ELEMENT, name=FASEI_MASTER
_FASEI_MASTER_S4, S4
_FASEI_MASTER_S2, S2
*Elset, elset=_FASEI_OPEN_WELL_S1, internal
 122, 123, 124, 125, 126, 127, 128, 129, 130, 131, 132, 144, 145, 146, 147, 148
 149, 150, 151, 152, 153, 154
*Elset, elset=_FASEI_OPEN_WELL_S2, internal, generate
 155,  165,    1
*Surface, type=ELEMENT, name=FASEI_OPEN_WELL
_FASEI_OPEN_WELL_S1, S1
_FASEI_OPEN_WELL_S2, S2
*Elset, elset=_FASEI_REV_S2, internal
  1,  2,  3,  4,  5,  6,  7,  8,  9, 10, 11, 12, 13, 14, 15, 16
 17, 18, 19, 20, 21, 22, 56, 57, 58, 59, 60, 61, 62, 63, 64, 65
 66,
*Elset, elset=_FASEI_REV_S3, internal
 11, 22
*Elset, elset=_FASEI_REV_S4, internal
  1,  2,  3,  4,  5,  6,  7,  8,  9, 10, 11, 12, 13, 14, 15, 16
 17, 18, 19, 20, 21, 22, 56, 57, 58, 59, 60, 61, 62, 63, 64, 65
 66,
*Surface, type=ELEMENT, name=FASEI_REV
_FASEI_REV_S2, S2
_FASEI_REV_S3, S3
_FASEI_REV_S4, S4
*Elset, elset=_FASEI_WELL_S1, internal
 122, 123, 124, 125, 126, 127, 128, 129, 130, 131, 132, 144, 145, 146, 147, 148
 149, 150, 151, 152, 153, 154
*Elset, elset=_FASEI_WELL_S2, internal, generate
 155,  165,    1
*Surface, type=ELEMENT, name=FASEI_WELL
_FASEI_WELL_S1, S1
_FASEI_WELL_S2, S2
** Section: VM11013CRSS
*Solid Section, elset=FASEI_REV, material=VM11013CRSS
,
** Section: L3-I-HALITA
*Solid Section, elset=L3-I, material=L3-I-HALITA
,
** Section: FLUIDO
*Solid Section, elset=FASEI_FLUIDO, material=FLUIDO
,
** Section: L1-I-FOLHELHO
*Solid Section, elset=L1-I, material=L1-I-FOLHELHO
,
** Section: L2-I-ARENITO
*Solid Section, elset=L2-I, material=L2-I-ARENITO
,
*End Part
**  
**
** ASSEMBLY
**
*Assembly, name=Assembly
**  
*Instance, name=Analise-1-1, part=Analise-1
*End Instance
**  
*Surface, type=NODE, name=Analise-1-1_FASEI_SLAVE_CNS_, internal
Analise-1-1.FASEI_SLAVE, 1.
*End Assembly
** 
** MATERIALS
** 
*Material, name=FLUIDO
*Conductivity
 0.702,
*Density
1.,
*Elastic
10000.,0.
*Specific Heat
2060.,
*Material, name=L1-I-FOLHELHO
*Conductivity
 1.592,
*Density
 2332.74,
*Elastic
 2.00017e+10, 0.29
*Specific Heat
 0.209946,
*Mohr Coulomb
28.,7.
*Mohr Coulomb Hardening
 2.00017e+07,0.
*Material, name=L2-I-ARENITO
*Conductivity
 1.869,
*Density
 1780.09,
*Elastic
 2.4062e+10, 0.25
*Specific Heat
 0.209946,
*Mohr Coulomb
30., 7.5
*Mohr Coulomb Hardening
 2.00017e+07,0.
*Material, name=L3-I-HALITA
*Conductivity
 5.55,
*Creep
 1.01924e-41,  3., 0.7, 9.5
*Density
 1780.09,
*Elastic
 2.04e+10, 0.36
*Specific Heat
 0.209946,
*Material, name=VM11013CRSS
*Conductivity
 45.3452,
*Density
7950.,
*Elastic
 2.06843e+11, 0.3
*Plastic
 7.58424e+08,     0., 273.15
 7.58424e+08,   0.25, 273.15
 7.56376e+08,     0., 298.15
 7.56376e+08,   0.25, 298.15
  7.2566e+08,     0., 373.15
  7.2566e+08,   0.25, 373.15
 7.05182e+08,     0., 423.15
 7.05182e+08,   0.25, 423.15
 6.84705e+08,     0., 473.15
 6.84705e+08,   0.25, 473.15
 6.64227e+08,     0., 523.15
 6.64227e+08,   0.25, 523.15
*Specific Heat
 342.219,
** 
** INTERACTION PROPERTIES
** 
*Surface Interaction, name=C_FASEI
1.,
*Friction, slip tolerance=0.005
 0.5,
*Surface Behavior, pressure-overclosure=HARD
*Time Points, name=timePoint
1., 3600., 7200., 14400., 28800., 57600., 86400., 172800.
345600., 691200., 1.3824e+06, 2.7648e+06, 5.5296e+06, 1.10592e+07, 2.21184e+07, 3.1536e+07
6.3072e+07, 1.26144e+08, 2.52288e+08, 5.04576e+08, 9.4608e+08
** 
** BOUNDARY CONDITIONS
** 
** Name: FIX_FASEI_WELL Type: Symmetry/Antisymmetry/Encastre
*Boundary
Analise-1-1.FASEI_WELL_CIMENTO_BASE, XSYMM
** Name: PIN_FASEI Type: Symmetry/Antisymmetry/Encastre
*Boundary
Analise-1-1.FASEI_REV, PINNED
** Name: XSYM_ROCK_BC Type: Symmetry/Antisymmetry/Encastre
*Boundary
Analise-1-1.ROCK_BC, XSYMM
** Name: YSYM_BASE Type: Symmetry/Antisymmetry/Encastre
*Boundary
Analise-1-1.YSYM_BASE, YSYMM
** Name: YSYM_TOP Type: Symmetry/Antisymmetry/Encastre
*Boundary
Analise-1-1.YSYM_TOP, YSYMM
** 
** PREDEFINED FIELDS
** 
** Name: S_FASEI_REV   Type: Geostatic stress
*Initial Conditions, type=STRESS, GEOSTATIC
Analise-1-1.FASEI_REV, 1.33997e+08, -2000., -2.19818e+07, -4000., 0., 0.
** Name: S_L1-I   Type: Geostatic stress
*Initial Conditions, type=STRESS, GEOSTATIC
Analise-1-1.L1-I, -3.14128e+07, -2500., -4.05664e+07, -2900., 1., 1.
** Name: S_L2-I   Type: Geostatic stress
*Initial Conditions, type=STRESS, GEOSTATIC
Analise-1-1.L2-I, -4.05664e+07, -2900., -4.58052e+07, -3200., 1., 1.
** Name: S_L3-I   Type: Geostatic stress
*Initial Conditions, type=STRESS, GEOSTATIC
Analise-1-1.L3-I, -4.58052e+07, -3200., -5.1044e+07, -3500., 1., 1.
** 
** INTERACTIONS
** 
** Interaction: C_FASEI
*Contact Pair, interaction=C_FASEI, type=SURFACE TO SURFACE
Analise-1-1_FASEI_SLAVE_CNS_, Analise-1-1.FASEI_MASTER
** ----------------------------------------------------------------
** 
** STEP: Geostatic
** 
*Step, name=Geostatic, nlgeom=YES
*Geostatic
** 
** LOADS
** 
** Name: GRAVITY   Type: Gravity
*Dload, op=NEW
, GRAV, 9.81, , -1.
** 
** INTERACTIONS
** 
** Interaction: C_FASEI
*Model Change, type=CONTACT PAIR, remove
Analise-1-1_FASEI_SLAVE_CNS_, Analise-1-1.FASEI_MASTER
** Interaction: MC_FASEI_FLUIDO
*Model Change, remove
Analise-1-1.FASEI_FLUIDO, 
** Interaction: MC_FASEI_REV
*Model Change, remove
Analise-1-1.FASEI_REV, 
** 
** OUTPUT REQUESTS
** 
*Restart, write, frequency=0
** 
** FIELD OUTPUT: FASEI_REV
** 
*Output, field
*Node Output, nset=Analise-1-1.FASEI_REV
NT, U
*Element Output, elset=Analise-1-1.FASEI_REV, directions=YES
E, MISES, PE, S, PEEQ
** 
** FIELD OUTPUT: ROCK_OUTPUT
** 
*Node Output, nset=Analise-1-1.ROCK_OUTPUT
U, 
*Element Output, elset=Analise-1-1.ROCK_OUTPUT, directions=YES
TEMP, 
*Output, history, frequency=0
*End Step
** ----------------------------------------------------------------
** 
** STEP: Transition
** 
*Step, name=Transition, nlgeom=YES
*Static
1., 2., 2e-05, 2.
** 
** LOADS
** 
** Name: GRAVITY   Type: Gravity
*Dload, op=NEW
, GRAV, 9.81, , -1.
** 
** OUTPUT REQUESTS
** 
*Restart, write, frequency=0
** 
** FIELD OUTPUT: FASEI_REV
** 
*Output, field, time points=timePoint
*Node Output, nset=Analise-1-1.FASEI_REV
NT, U
*Element Output, elset=Analise-1-1.FASEI_REV, directions=YES
E, MISES, PE, S, PEEQ
** 
** FIELD OUTPUT: ROCK_OUTPUT
** 
*Node Output, nset=Analise-1-1.ROCK_OUTPUT
U, 
*Element Output, elset=Analise-1-1.ROCK_OUTPUT, directions=YES
TEMP, 
*Output, history, frequency=0
*End Step
** ----------------------------------------------------------------
** 
** STEP: TempDefine
** 
*Step, name=TempDefine, nlgeom=YES
*Static
1., 3., 3e-05, 3.
** 
** LOADS
** 
** Name: GRAVITY   Type: Gravity
*Dload, op=NEW
, GRAV, 9.81, , -1.
** 
** PREDEFINED FIELDS
** 
** Name: NT_FASEI   Type: Temperature Using Field: Geotermico
*Temperature
Analise-1-1.1, 318.578
Analise-1-1.2, 318.578
Analise-1-1.3, 330.285
Analise-1-1.4, 330.285
Analise-1-1.5, 306.694
Analise-1-1.6, 306.694
Analise-1-1.7, 294.987
Analise-1-1.8, 294.987
Analise-1-1.13, 330.285
Analise-1-1.14, 318.578
Analise-1-1.19, 306.694
Analise-1-1.20, 294.987
Analise-1-1.21, 319.643
Analise-1-1.22, 320.707
Analise-1-1.23, 321.771
Analise-1-1.24, 322.835
Analise-1-1.25, 323.9
Analise-1-1.26, 324.964
Analise-1-1.27, 326.117
Analise-1-1.28, 327.181
** ... 82 like lines cut
** Name: NT_FASEI_ID   Type: Temperature Using Field: Geotermico
*Temperature
Analise-1-1.2, 318.578
Analise-1-1.3, 330.285
Analise-1-1.5, 306.694
Analise-1-1.8, 294.987
Analise-1-1.21, 319.643
Analise-1-1.22, 320.707
Analise-1-1.23, 321.771
Analise-1-1.24, 322.835
Analise-1-1.25, 323.9
Analise-1-1.26, 324.964
Analise-1-1.27, 326.117
Analise-1-1.28, 327.181
Analise-1-1.29, 328.245
Analise-1-1.30, 329.31
Analise-1-1.51, 295.963
Analise-1-1.52, 297.027
Analise-1-1.53, 298.092
Analise-1-1.54, 299.156
Analise-1-1.55, 300.309
Analise-1-1.56, 301.373
** ... 14 like lines cut
** Name: NT_L1-I   Type: Temperature Using Field: NT_L1-I
*Temperature
Analise-1-1.15, 306.732
Analise-1-1.16, 306.732
Analise-1-1.17, 294.9
Analise-1-1.18, 294.9
Analise-1-1.19, 306.732
Analise-1-1.20, 294.9
Analise-1-1.113, 306.732
Analise-1-1.114, 305.657
Analise-1-1.115, 304.581
Analise-1-1.116, 303.505
Analise-1-1.117, 302.43
Analise-1-1.118, 301.354
Analise-1-1.119, 300.278
Analise-1-1.120, 299.203
Analise-1-1.121, 298.127
Analise-1-1.122, 297.051
Analise-1-1.123, 295.976
Analise-1-1.124, 294.9
Analise-1-1.125, 295.976
Analise-1-1.126, 297.051
** ... 28 like lines cut
** Name: NT_L1-I_OD   Type: Temperature Using Field: NT_L1-I
*Temperature
Analise-1-1.16, 306.732
Analise-1-1.17, 294.9
Analise-1-1.114, 305.657
Analise-1-1.115, 304.581
Analise-1-1.116, 303.505
Analise-1-1.117, 302.43
Analise-1-1.118, 301.354
Analise-1-1.119, 300.278
Analise-1-1.120, 299.203
Analise-1-1.121, 298.127
Analise-1-1.122, 297.051
Analise-1-1.123, 295.976
** Name: NT_L2-I   Type: Temperature Using Field: NT_L2-I
*Temperature
Analise-1-1.9, 318.564
Analise-1-1.12, 318.564
Analise-1-1.14, 318.564
Analise-1-1.15, 306.732
Analise-1-1.16, 306.732
Analise-1-1.19, 306.732
Analise-1-1.82, 318.564
Analise-1-1.113, 306.732
Analise-1-1.145, 317.489
Analise-1-1.146, 316.413
Analise-1-1.147, 315.337
Analise-1-1.148, 314.262
Analise-1-1.149, 313.186
Analise-1-1.150, 312.11
Analise-1-1.151, 311.035
Analise-1-1.152, 309.959
Analise-1-1.153, 308.883
Analise-1-1.154, 307.808
Analise-1-1.155, 307.808
Analise-1-1.156, 308.883
** ... 28 like lines cut
** Name: NT_L2-I_OD   Type: Temperature Using Field: NT_L2-I
*Temperature
Analise-1-1.12, 318.564
Analise-1-1.16, 306.732
Analise-1-1.145, 317.489
Analise-1-1.146, 316.413
Analise-1-1.147, 315.337
Analise-1-1.148, 314.262
Analise-1-1.149, 313.186
Analise-1-1.150, 312.11
Analise-1-1.151, 311.035
Analise-1-1.152, 309.959
Analise-1-1.153, 308.883
Analise-1-1.154, 307.808
** Name: NT_L3-I   Type: Temperature Using Field: NT_L3-I
*Temperature
Analise-1-1.9, 318.564
Analise-1-1.10, 330.4
Analise-1-1.11, 330.4
Analise-1-1.12, 318.564
Analise-1-1.13, 330.4
Analise-1-1.14, 318.564
Analise-1-1.61, 319.64
Analise-1-1.62, 320.716
Analise-1-1.63, 321.792
Analise-1-1.64, 322.868
Analise-1-1.65, 323.944
Analise-1-1.66, 325.02
Analise-1-1.67, 326.096
Analise-1-1.68, 327.172
Analise-1-1.69, 328.248
Analise-1-1.70, 329.324
Analise-1-1.71, 330.4
Analise-1-1.72, 329.324
Analise-1-1.73, 328.248
Analise-1-1.74, 327.172
** ... 28 like lines cut
** Name: NT_L3-I_OD   Type: Temperature Using Field: NT_L3-I
*Temperature
Analise-1-1.11, 330.4
Analise-1-1.12, 318.564
Analise-1-1.72, 329.324
Analise-1-1.73, 328.248
Analise-1-1.74, 327.172
Analise-1-1.75, 326.096
Analise-1-1.76, 325.02
Analise-1-1.77, 323.944
Analise-1-1.78, 322.868
Analise-1-1.79, 321.792
Analise-1-1.80, 320.716
Analise-1-1.81, 319.64
** 
** OUTPUT REQUESTS
** 
*Restart, write, frequency=0
** 
** FIELD OUTPUT: FASEI_REV
** 
*Output, field, time points=timePoint
*Node Output, nset=Analise-1-1.FASEI_REV
NT, U
*Element Output, elset=Analise-1-1.FASEI_REV, directions=YES
E, MISES, PE, S, PEEQ
** 
** FIELD OUTPUT: ROCK_OUTPUT
** 
*Node Output, nset=Analise-1-1.ROCK_OUTPUT
U, 
*Element Output, elset=Analise-1-1.ROCK_OUTPUT, directions=YES
TEMP, 
*Output, history, frequency=0
*End Step
** ----------------------------------------------------------------
** 
** STEP: Perf_10_375
** 
*Step, name=Perf_10_375, nlgeom=YES
*Static
1., 1., 1e-05, 1.
** 
** BOUNDARY CONDITIONS
** 
** Name: FIX_FASEI_WELL Type: Symmetry/Antisymmetry/Encastre
*Boundary, op=NEW
** Name: PIN_FASEI Type: Symmetry/Antisymmetry/Encastre
*Boundary, op=NEW
Analise-1-1.FASEI_REV, PINNED
** Name: XSYM_ROCK_BC Type: Symmetry/Antisymmetry/Encastre
*Boundary, op=NEW
Analise-1-1.ROCK_BC, XSYMM
** Name: YSYM_BASE Type: Symmetry/Antisymmetry/Encastre
*Boundary, op=NEW
Analise-1-1.YSYM_BASE, YSYMM
** Name: YSYM_TOP Type: Symmetry/Antisymmetry/Encastre
*Boundary, op=NEW
Analise-1-1.YSYM_TOP, YSYMM
** 
** LOADS
** 
** Name: GRAVITY   Type: Gravity
*Dload, op=NEW
, GRAV, 9.81, , -1.
** Name: P_FASEI_OPEN_WELL   Type: Pressure Using Field: P_FASEI_OPEN_WELL
*Dload, op=NEW
Analise-1-1.122, P1, 3.17913e+07
Analise-1-1.123, P1, 3.20941e+07
Analise-1-1.124, P1, 3.2397e+07
Analise-1-1.125, P1, 3.26998e+07
Analise-1-1.126, P1, 3.30027e+07
Analise-1-1.127, P1, 3.33055e+07
Analise-1-1.128, P1, 3.36083e+07
Analise-1-1.129, P1, 3.39112e+07
Analise-1-1.130, P1, 3.4214e+07
Analise-1-1.131, P1, 3.45169e+07
Analise-1-1.132, P1, 3.48197e+07
Analise-1-1.144, P1, 2.51308e+07
Analise-1-1.145, P1, 2.54335e+07
Analise-1-1.146, P1, 2.57363e+07
Analise-1-1.147, P1, 2.6039e+07
Analise-1-1.148, P1, 2.63417e+07
Analise-1-1.149, P1, 2.66445e+07
Analise-1-1.150, P1, 2.69473e+07
Analise-1-1.151, P1, 2.725e+07
Analise-1-1.152, P1, 2.75527e+07
** ... 13 like lines cut
** 
** OUTPUT REQUESTS
** 
*Restart, write, frequency=0
** 
** FIELD OUTPUT: FASEI_REV
** 
*Output, field, time points=timePoint
*Node Output, nset=Analise-1-1.FASEI_REV
NT, U
*Element Output, elset=Analise-1-1.FASEI_REV, directions=YES
E, MISES, PE, S, PEEQ
** 
** FIELD OUTPUT: ROCK_OUTPUT
** 
*Node Output, nset=Analise-1-1.ROCK_OUTPUT
U, 
*Element Output, elset=Analise-1-1.ROCK_OUTPUT, directions=YES
TEMP, 
*Output, history, frequency=0
*End Step
** ----------------------------------------------------------------
** 
** STEP: Perf_10_375_Creep
** 
*Step, name=Perf_10_375_Creep, nlgeom=YES, inc=1000000
*Visco, cetol=0.01
1., 172800., 1e-15, 172800.
** 
** LOADS
** 
** Name: GRAVITY   Type: Gravity
*Dload, op=NEW
, GRAV, 9.81, , -1.
** Name: P_FASEI_OPEN_WELL   Type: Pressure Using Field: P_FASEI_OPEN_WELL
*Dload, op=NEW
Analise-1-1.122, P1, 3.17913e+07
Analise-1-1.123, P1, 3.20941e+07
Analise-1-1.124, P1, 3.2397e+07
Analise-1-1.125, P1, 3.26998e+07
Analise-1-1.126, P1, 3.30027e+07
Analise-1-1.127, P1, 3.33055e+07
Analise-1-1.128, P1, 3.36083e+07
Analise-1-1.129, P1, 3.39112e+07
Analise-1-1.130, P1, 3.4214e+07
Analise-1-1.131, P1, 3.45169e+07
Analise-1-1.132, P1, 3.48197e+07
Analise-1-1.144, P1, 2.51308e+07
Analise-1-1.145, P1, 2.54335e+07
Analise-1-1.146, P1, 2.57363e+07
Analise-1-1.147, P1, 2.6039e+07
Analise-1-1.148, P1, 2.63417e+07
Analise-1-1.149, P1, 2.66445e+07
Analise-1-1.150, P1, 2.69473e+07
Analise-1-1.151, P1, 2.725e+07
Analise-1-1.152, P1, 2.75527e+07
** ... 13 like lines cut
** 
** OUTPUT REQUESTS
** 
*Restart, write, frequency=0
** 
** FIELD OUTPUT: FASEI_REV
** 
*Output, field, time points=timePoint
*Node Output, nset=Analise-1-1.FASEI_REV
NT, U
*Element Output, elset=Analise-1-1.FASEI_REV, directions=YES
E, MISES, PE, S, PEEQ
** 
** FIELD OUTPUT: ROCK_OUTPUT
** 
*Node Output, nset=Analise-1-1.ROCK_OUTPUT
U, 
*Element Output, elset=Analise-1-1.ROCK_OUTPUT, directions=YES
TEMP, 
*Output, history, frequency=0
*End Step
** ----------------------------------------------------------------
** 
** STEP: Rev_9_875
** 
*Step, name=Rev_9_875, nlgeom=YES
*Static
1., 1., 1e-15, 1.
** 
** BOUNDARY CONDITIONS
** 
** Name: PIN_FASEI Type: Symmetry/Antisymmetry/Encastre
*Boundary, op=NEW
** Name: XSYM_ROCK_BC Type: Symmetry/Antisymmetry/Encastre
*Boundary, op=NEW
Analise-1-1.ROCK_BC, XSYMM
** Name: YSYM_BASE Type: Symmetry/Antisymmetry/Encastre
*Boundary, op=NEW
Analise-1-1.YSYM_BASE, YSYMM
** Name: YSYM_TOP Type: Symmetry/Antisymmetry/Encastre
*Boundary, op=NEW
Analise-1-1.YSYM_TOP, YSYMM
** 
** LOADS
** 
** Name: GRAVITY   Type: Gravity
*Dload, op=NEW
, GRAV, 9.81, , -1.
** Name: P_FASEI_COMPLETED_WELL   Type: Pressure Using Field: P_FASEI_COMPLETED_WELL
*Dload, op=NEW
Analise-1-1.1, P2, 3.17913e+07
Analise-1-1.2, P2, 3.20941e+07
Analise-1-1.3, P2, 3.2397e+07
Analise-1-1.4, P2, 3.26998e+07
Analise-1-1.5, P2, 3.30027e+07
Analise-1-1.6, P2, 3.33055e+07
Analise-1-1.7, P2, 3.36083e+07
Analise-1-1.8, P2, 3.39112e+07
Analise-1-1.9, P2, 3.4214e+07
Analise-1-1.10, P2, 3.45169e+07
Analise-1-1.11, P2, 3.48197e+07
Analise-1-1.12, P4, 2.81583e+07
Analise-1-1.13, P4, 2.78555e+07
Analise-1-1.14, P4, 2.75527e+07
Analise-1-1.15, P4, 2.725e+07
Analise-1-1.16, P4, 2.69473e+07
Analise-1-1.17, P4, 2.66445e+07
Analise-1-1.18, P4, 2.63417e+07
Analise-1-1.19, P4, 2.6039e+07
Analise-1-1.20, P4, 2.57363e+07
** ... 13 like lines cut
** Name: P_FASEI_FLUIDO   Type: Pressure Using Field: P_FASEI_FLUIDO
*Dload, op=NEW
Analise-1-1.1, P4, 3.17913e+07
Analise-1-1.2, P4, 3.20941e+07
Analise-1-1.3, P4, 3.2397e+07
Analise-1-1.4, P4, 3.26998e+07
Analise-1-1.5, P4, 3.30027e+07
Analise-1-1.6, P4, 3.33055e+07
Analise-1-1.7, P4, 3.36083e+07
Analise-1-1.8, P4, 3.39112e+07
Analise-1-1.9, P4, 3.4214e+07
Analise-1-1.10, P4, 3.45169e+07
Analise-1-1.11, P4, 3.48197e+07
Analise-1-1.12, P2, 2.81583e+07
Analise-1-1.13, P2, 2.78555e+07
Analise-1-1.14, P2, 2.75527e+07
Analise-1-1.15, P2, 2.725e+07
Analise-1-1.16, P2, 2.69473e+07
Analise-1-1.17, P2, 2.66445e+07
Analise-1-1.18, P2, 2.63417e+07
Analise-1-1.19, P2, 2.6039e+07
Analise-1-1.20, P2, 2.57363e+07
** ... 46 like lines cut
** Name: P_FASEI_OPEN_WELL   Type: Pressure Using Field: P_FASEI_OPEN_WELL
*Dload, op=NEW
** 
** INTERACTIONS
** 
** Interaction: C_FASEI
*Model Change, type=CONTACT PAIR, add
Analise-1-1_FASEI_SLAVE_CNS_, Analise-1-1.FASEI_MASTER
** Interaction: MC_FASEI_REV
*Model Change, add
Analise-1-1.FASEI_REV, 
** 
** OUTPUT REQUESTS
** 
*Restart, write, frequency=0
** 
** FIELD OUTPUT: FASEI_REV
** 
*Output, field, time points=timePoint
*Node Output, nset=Analise-1-1.FASEI_REV
NT, U
*Element Output, elset=Analise-1-1.FASEI_REV, directions=YES
E, MISES, PE, S, PEEQ
** 
** FIELD OUTPUT: ROCK_OUTPUT
** 
*Node Output, nset=Analise-1-1.ROCK_OUTPUT
U, 
*Element Output, elset=Analise-1-1.ROCK_OUTPUT, directions=YES
TEMP, 
*Output, history, frequency=0
*End Step
** ----------------------------------------------------------------
** 
** STEP: Rev_9_875_Creep
** 
*Step, name=Rev_9_875_Creep, nlgeom=YES, inc=1000000
*Visco, cetol=0.01
1., 9.45907e+08, 1e-15, 1.5552e+07
** 
** LOADS
** 
** Name: GRAVITY   Type: Gravity
*Dload, op=NEW
, GRAV, 9.81, , -1.
** Name: P_FASEI_COMPLETED_WELL   Type: Pressure Using Field: P_FASEI_COMPLETED_WELL
*Dload, op=NEW
Analise-1-1.1, P2, 3.17913e+07
Analise-1-1.2, P2, 3.20941e+07
Analise-1-1.3, P2, 3.2397e+07
Analise-1-1.4, P2, 3.26998e+07
Analise-1-1.5, P2, 3.30027e+07
Analise-1-1.6, P2, 3.33055e+07
Analise-1-1.7, P2, 3.36083e+07
Analise-1-1.8, P2, 3.39112e+07
Analise-1-1.9, P2, 3.4214e+07
Analise-1-1.10, P2, 3.45169e+07
Analise-1-1.11, P2, 3.48197e+07
Analise-1-1.12, P4, 2.81583e+07
Analise-1-1.13, P4, 2.78555e+07
Analise-1-1.14, P4, 2.75527e+07
Analise-1-1.15, P4, 2.725e+07
Analise-1-1.16, P4, 2.69473e+07
Analise-1-1.17, P4, 2.66445e+07
Analise-1-1.18, P4, 2.63417e+07
Analise-1-1.19, P4, 2.6039e+07
Analise-1-1.20, P4, 2.57363e+07
** ... 13 like lines cut
** Name: P_FASEI_FLUIDO   Type: Pressure Using Field: P_FASEI_FLUIDO
*Dload, op=NEW
Analise-1-1.1, P4, 3.17913e+07
Analise-1-1.2, P4, 3.20941e+07
Analise-1-1.3, P4, 3.2397e+07
Analise-1-1.4, P4, 3.26998e+07
Analise-1-1.5, P4, 3.30027e+07
Analise-1-1.6, P4, 3.33055e+07
Analise-1-1.7, P4, 3.36083e+07
Analise-1-1.8, P4, 3.39112e+07
Analise-1-1.9, P4, 3.4214e+07
Analise-1-1.10, P4, 3.45169e+07
Analise-1-1.11, P4, 3.48197e+07
Analise-1-1.12, P2, 2.81583e+07
Analise-1-1.13, P2, 2.78555e+07
Analise-1-1.14, P2, 2.75527e+07
Analise-1-1.15, P2, 2.725e+07
Analise-1-1.16, P2, 2.69473e+07
Analise-1-1.17, P2, 2.66445e+07
Analise-1-1.18, P2, 2.63417e+07
Analise-1-1.19, P2, 2.6039e+07
Analise-1-1.20, P2, 2.57363e+07
** ... 46 like lines cut
** 
** OUTPUT REQUESTS
** 
*Restart, write, frequency=0
** 
** FIELD OUTPUT: FASEI_REV
** 
*Output, field, time points=timePoint
*Node Output, nset=Analise-1-1.FASEI_REV
NT, U
*Element Output, elset=Analise-1-1.FASEI_REV, directions=YES
E, MISES, PE, S, PEEQ
** 
** FIELD OUTPUT: ROCK_OUTPUT
** 
*Node Output, nset=Analise-1-1.ROCK_OUTPUT
U, 
*Element Output, elset=Analise-1-1.ROCK_OUTPUT, directions=YES
TEMP, 
*Output, history, frequency=0
*End Step
