1

   Abaqus 2024                                  Date 26-fev-2026   Time 11:12:30
   For use by PONTIFICIA UNIVERSIDADE CATOLICA DO RIO DE JANEIRO under license from Dassault Systemes or its subsidiary.

                                                                                 
                                                                                 
 STEP    1     INCREMENT     1     STEP TIME    0.00    


                        S T E P       1     G E O S T A T I C   S T R E S S   A N A L Y S I S


                                                                                          

 CONVERGENCE TOLERANCE PARAMETERS FOR FORCE    
     CRITERION FOR RESIDUAL FORCE     FOR A NONLINEAR PROBLEM          5.000E-03
     CRITERION FOR DISP.    CORRECTION IN A NONLINEAR PROBLEM          1.000E-02
     INITIAL VALUE OF TIME AVERAGE FORCE                               1.000E-02
     AVERAGE FORCE     IS TIME AVERAGE FORCE    
     ALTERNATE CRIT. FOR RESIDUAL FORCE     FOR A NONLINEAR PROBLEM    2.000E-02
     CRITERION FOR ZERO FORCE     RELATIVE TO TIME AVRG. FORCE         1.000E-05
     CRITERION FOR RESIDUAL FORCE     WHEN THERE IS ZERO FLUX          1.000E-05
     CRITERION FOR DISP.    CORRECTION WHEN THERE IS ZERO FLUX         1.000E-03
     CRITERION FOR RESIDUAL FORCE     FOR A LINEAR INCREMENT           1.000E-08
     FIELD CONVERSION RATIO                                             1.00    
     CRITERION FOR ZERO FORCE     REL. TO TIME AVRG. MAX. FORCE        1.000E-05
     CRITERION FOR ZERO DISP.    RELATIVE TO CHARACTERISTIC LENGTH     1.000E-08

     VOLUMETRIC STRAIN COMPATIBILITY TOLERANCE FOR HYBRID SOLIDS       1.000E-05
     AXIAL STRAIN COMPATIBILITY TOLERANCE FOR HYBRID BEAMS             1.000E-05
     TRANS. SHEAR STRAIN COMPATIBILITY TOLERANCE FOR HYBRID BEAMS      1.000E-05
     SOFT CONTACT CONSTRAINT COMPATIBILITY TOLERANCE FOR P>P0          5.000E-03
     SOFT CONTACT CONSTRAINT COMPATIBILITY TOLERANCE FOR P=0.0         0.100    
     CONTACT FORCE ERROR TOLERANCE FOR CONVERT SDI=YES                 1.00    
     DISPLACEMENT COMPATIBILITY TOLERANCE FOR DCOUP ELEMENTS           1.000E-05
     ROTATION COMPATIBILITY TOLERANCE FOR DCOUP ELEMENTS               1.000E-05

 EQUILIBRIUM WILL BE CHECKED FOR SEVERE DISCONTINUITY ITERATIONS

 ITERATION CONTROL PARAMETERS:
     FIRST EQUILIBRIUM ITERATION FOR CONSECUTIVE DIVERGENCE CHECK              4
     EQUILIBRIUM ITERATION AFTER WHICH ALTERNATE RESIDUAL IS USED              9
     MAXIMUM EQUILIBRIUM ITERATIONS ALLOWED                                   16
     MAXIMUM ITERATIONS FOR SEVERE DISCONTINUITIES                            12
     GLOBAL STABILIZATION CONTROL IS NOT USED

          PRINT OF INCREMENT NUMBER, TIME, ETC., EVERY    1  INCREMENTS

     THE MAXIMUM NUMBER OF INCREMENTS IN THIS STEP IS                       1

          LARGE DISPLACEMENT THEORY WILL BE USED

          UNSYMMETRIC MATRIX STORAGE AND SOLUTION WILL BE USED

     LINEAR EXTRAPOLATION WILL BE USED

     CHARACTERISTIC ELEMENT LENGTH      16.6    

     DETAILS REGARDING ACTUAL SOLUTION WAVEFRONT REQUESTED

     DETAILED OUTPUT OF DIAGNOSTICS TO DATABASE REQUESTED

     PRINT OF INCREMENT NUMBER, TIME, ETC., TO THE MESSAGE FILE EVERY     1  INCREMENTS

     COLLECTING MODEL CONSTRAINT INFORMATION FOR OVERCONSTRAINT CHECKS

     COLLECTING STEP CONSTRAINT INFORMATION FOR OVERCONSTRAINT CHECKS
 
     CONTACT INITIAL STRESS CALCULATIONS ARE TURNED ON IN ZEROINC

 ***WARNING: THERE ARE 33 UNCONNECTED REGIONS IN THE MODEL.

 ***NOTE: SFM TYPE SURFACE ELEMENTS USED TO DEFINE CONTACT SURFACES NOT PART OF 
          A RIGID BODY MAY INCREASE THE NUMBER OR UNCONNECTED REGIONS REPORTED.
 
	UNSYMMETRIC NEW DIRECT SPARSE SOLVER RUNNING ON
 	1 HOST x 1 MPI RANK PER HOST x 1 THREAD PER RANK
        NUMBER OF EQUATIONS:  408
        NUMBER OF RHS:        1
        NUMBER OF FLOPS:      1.360e+05
        SOLVER ELAPSED TIME:  21ms

               CONVERGENCE CHECKS FOR EQUILIBRIUM ITERATION     1


 AVERAGE FORCE                      8.782E+09   TIME AVG. FORCE       8.782E+09
 LARGEST SCALED RESIDUAL FORCE     -1.819E+05   AT NODE         16   DOF  2
   INSTANCE: ANALISE-1-1                                                                     
  CORRESPONDING RESIDUAL FORCE     -1.819E+05
 LARGEST INCREMENT OF DISP.         2.881E-03   AT NODE         16   DOF  2
   INSTANCE: ANALISE-1-1                                                                     
 LARGEST CORRECTION TO DISP.        2.881E-03   AT NODE         16   DOF  2
   INSTANCE: ANALISE-1-1                                                                     
 ESTIMATE OF DISP.    CORRECTION   -4.154E-06
 FORCE     EQUILIB. ACCEPTED BASED ON SMALL RESIDUAL AND ESTIMATED CORRECTION

 ITERATION SUMMARY FOR THE INCREMENT:   1 TOTAL ITERATIONS, OF WHICH
   0 ARE SEVERE DISCONTINUITY ITERATIONS AND  1 ARE EQUILIBRIUM ITERATIONS.

 TIME INCREMENT COMPLETED   1.00    ,  FRACTION OF STEP COMPLETED   1.00    
 STEP TIME COMPLETED        1.00    ,  TOTAL TIME COMPLETED         1.00    
1

   Abaqus 2024                                  Date 26-fev-2026   Time 11:12:30
   For use by PONTIFICIA UNIVERSIDADE CATOLICA DO RIO DE JANEIRO under license from Dassault Systemes or its subsidiary.

                                                                                 
                                                                                 
 STEP    2     INCREMENT     1     STEP TIME    0.00    


                        S T E P       2     S T A T I C   A N A L Y S I S


                                                                                          

     AUTOMATIC TIME CONTROL WITH -
          A SUGGESTED INITIAL TIME INCREMENT OF                 1.00    
          AND A TOTAL TIME PERIOD OF                            2.00    
          THE MINIMUM TIME INCREMENT ALLOWED IS                2.000E-05
          THE MAXIMUM TIME INCREMENT ALLOWED IS                 2.00    

     LINEAR EQUATION SOLVER TYPE         DIRECT SPARSE

 CONVERGENCE TOLERANCE PARAMETERS FOR FORCE    
     CRITERION FOR RESIDUAL FORCE     FOR A NONLINEAR PROBLEM          5.000E-03
     CRITERION FOR DISP.    CORRECTION IN A NONLINEAR PROBLEM          1.000E-02
     INIT. VALUE OF TIME AVG. FORCE     IS TIME AVG. FORCE     IN PREVIOUS STEP
     AVERAGE FORCE     IS TIME AVERAGE FORCE    
     ALTERNATE CRIT. FOR RESIDUAL FORCE     FOR A NONLINEAR PROBLEM    2.000E-02
     CRITERION FOR ZERO FORCE     RELATIVE TO TIME AVRG. FORCE         1.000E-05
     CRITERION FOR RESIDUAL FORCE     WHEN THERE IS ZERO FLUX          1.000E-05
     CRITERION FOR DISP.    CORRECTION WHEN THERE IS ZERO FLUX         1.000E-03
     CRITERION FOR RESIDUAL FORCE     FOR A LINEAR INCREMENT           1.000E-08
     FIELD CONVERSION RATIO                                             1.00    
     CRITERION FOR ZERO FORCE     REL. TO TIME AVRG. MAX. FORCE        1.000E-05
     CRITERION FOR ZERO DISP.    RELATIVE TO CHARACTERISTIC LENGTH     1.000E-08

     VOLUMETRIC STRAIN COMPATIBILITY TOLERANCE FOR HYBRID SOLIDS       1.000E-05
     AXIAL STRAIN COMPATIBILITY TOLERANCE FOR HYBRID BEAMS             1.000E-05
     TRANS. SHEAR STRAIN COMPATIBILITY TOLERANCE FOR HYBRID BEAMS      1.000E-05
     SOFT CONTACT CONSTRAINT COMPATIBILITY TOLERANCE FOR P>P0          5.000E-03
     SOFT CONTACT CONSTRAINT COMPATIBILITY TOLERANCE FOR P=0.0         0.100    
     CONTACT FORCE ERROR TOLERANCE FOR CONVERT SDI=YES                 1.00    
     DISPLACEMENT COMPATIBILITY TOLERANCE FOR DCOUP ELEMENTS           1.000E-05
     ROTATION COMPATIBILITY TOLERANCE FOR DCOUP ELEMENTS               1.000E-05

 EQUILIBRIUM WILL BE CHECKED FOR SEVERE DISCONTINUITY ITERATIONS

 TIME INCREMENTATION CONTROL PARAMETERS:
     FIRST EQUILIBRIUM ITERATION FOR CONSECUTIVE DIVERGENCE CHECK              4
     EQUILIBRIUM ITERATION AT WHICH LOG. CONVERGENCE RATE CHECK BEGINS         8
     EQUILIBRIUM ITERATION AFTER WHICH ALTERNATE RESIDUAL IS USED              9
     MAXIMUM EQUILIBRIUM ITERATIONS ALLOWED                                   16
     EQUILIBRIUM ITERATION COUNT FOR CUT-BACK IN NEXT INCREMENT               10
     MAXIMUM EQUILIB. ITERS IN TWO INCREMENTS FOR TIME INCREMENT INCREASE      4
     MAXIMUM ITERATIONS FOR SEVERE DISCONTINUITIES                            50
     MAXIMUM ATTEMPTS ALLOWED IN AN INCREMENT                                  5
     MAXIMUM DISCON. ITERS IN TWO INCREMENTS FOR TIME INCREMENT INCREASE      50
     MAXIMUM CONTACT AUGMENTATIONS FOR *SURFACE BEHAVIOR,AUGMENTED LAGRANGE   50
     CUT-BACK FACTOR AFTER DIVERGENCE                                 0.2500    
     CUT-BACK FACTOR FOR TOO SLOW CONVERGENCE                         0.5000    
     CUT-BACK FACTOR AFTER TOO MANY EQUILIBRIUM ITERATIONS            0.7500    
     CUT-BACK FACTOR AFTER TOO MANY SEVERE DISCONTINUITY ITERATIONS   0.2500    
     CUT-BACK FACTOR AFTER PROBLEMS IN ELEMENT ASSEMBLY               0.2500    
     INCREASE FACTOR AFTER TWO INCREMENTS THAT CONVERGE QUICKLY        1.500    
     MAX. TIME INCREMENT INCREASE FACTOR ALLOWED                       1.500    
     MAX. TIME INCREMENT INCREASE FACTOR ALLOWED (DYNAMICS)            1.250    
     MAX. TIME INCREMENT INCREASE FACTOR ALLOWED (DIFFUSION)           2.000    
     MINIMUM TIME INCREMENT RATIO FOR EXTRAPOLATION TO OCCUR          0.1000    
     MAX. RATIO OF TIME INCREMENT TO STABILITY LIMIT                   1.000    
     FRACTION OF STABILITY LIMIT FOR NEW TIME INCREMENT               0.9500    
     TIME INCREMENT INCREASE FACTOR BEFORE A TIME POINT                1.000    
     GLOBAL STABILIZATION CONTROL IS NOT USED

          PRINT OF INCREMENT NUMBER, TIME, ETC., EVERY    1  INCREMENTS

     THE MAXIMUM NUMBER OF INCREMENTS IN THIS STEP IS                     100

          LARGE DISPLACEMENT THEORY WILL BE USED

          UNSYMMETRIC MATRIX STORAGE AND SOLUTION WILL BE USED

     LINEAR EXTRAPOLATION WILL BE USED

     CHARACTERISTIC ELEMENT LENGTH      16.6    

     DETAILS REGARDING ACTUAL SOLUTION WAVEFRONT REQUESTED

     DETAILED OUTPUT OF DIAGNOSTICS TO DATABASE REQUESTED

     PRINT OF INCREMENT NUMBER, TIME, ETC., TO THE MESSAGE FILE EVERY     1  INCREMENTS

     COLLECTING STEP CONSTRAINT INFORMATION FOR OVERCONSTRAINT CHECKS


  INCREMENT     1 STARTS. ATTEMPT NUMBER  1, TIME INCREMENT   1.00    

 ***WARNING: THERE ARE 33 UNCONNECTED REGIONS IN THE MODEL.

 ***NOTE: SFM TYPE SURFACE ELEMENTS USED TO DEFINE CONTACT SURFACES NOT PART OF 
          A RIGID BODY MAY INCREASE THE NUMBER OR UNCONNECTED REGIONS REPORTED.
 
	UNSYMMETRIC NEW DIRECT SPARSE SOLVER RUNNING ON
 	1 HOST x 1 MPI RANK PER HOST x 1 THREAD PER RANK
        NUMBER OF EQUATIONS:  408
        NUMBER OF RHS:        1
        NUMBER OF FLOPS:      1.360e+05
        SOLVER ELAPSED TIME:  1ms

               CONVERGENCE CHECKS FOR EQUILIBRIUM ITERATION     1


 AVERAGE FORCE                      8.782E+09   TIME AVG. FORCE       8.782E+09
 LARGEST SCALED RESIDUAL FORCE     -5.894E-04   AT NODE         16   DOF  2
   INSTANCE: ANALISE-1-1                                                                     
  CORRESPONDING RESIDUAL FORCE     -5.894E-04
 LARGEST INCREMENT OF DISP.        -3.978E-06   AT NODE         15   DOF  2
   INSTANCE: ANALISE-1-1                                                                     
 LARGEST CORRECTION TO DISP.       -3.978E-06   AT NODE         15   DOF  2
   INSTANCE: ANALISE-1-1                                                                     
          THE FORCE     EQUILIBRIUM RESPONSE WAS LINEAR IN THIS INCREMENT

 ITERATION SUMMARY FOR THE INCREMENT:   1 TOTAL ITERATIONS, OF WHICH
   0 ARE SEVERE DISCONTINUITY ITERATIONS AND  1 ARE EQUILIBRIUM ITERATIONS.

 TIME INCREMENT COMPLETED   1.00    ,  FRACTION OF STEP COMPLETED  0.500    
 STEP TIME COMPLETED        1.00    ,  TOTAL TIME COMPLETED         2.00    


  INCREMENT     2 STARTS. ATTEMPT NUMBER  1, TIME INCREMENT   1.00    
 
	UNSYMMETRIC NEW DIRECT SPARSE SOLVER RUNNING ON
 	1 HOST x 1 MPI RANK PER HOST x 1 THREAD PER RANK
        NUMBER OF EQUATIONS:  408
        NUMBER OF RHS:        1
        NUMBER OF FLOPS:      1.360e+05
        SOLVER ELAPSED TIME:  1ms

               CONVERGENCE CHECKS FOR EQUILIBRIUM ITERATION     1


 AVERAGE FORCE                      8.782E+09   TIME AVG. FORCE       8.782E+09
 LARGEST SCALED RESIDUAL FORCE      5.894E-04   AT NODE         16   DOF  2
   INSTANCE: ANALISE-1-1                                                                     
  CORRESPONDING RESIDUAL FORCE      5.894E-04
 LARGEST INCREMENT OF DISP.        -2.075E-14   AT NODE         16   DOF  2
   INSTANCE: ANALISE-1-1                                                                     
 LARGEST CORRECTION TO DISP.        3.978E-06   AT NODE        113   DOF  2
   INSTANCE: ANALISE-1-1                                                                     
          THE FORCE     EQUILIBRIUM RESPONSE WAS LINEAR IN THIS INCREMENT

 ITERATION SUMMARY FOR THE INCREMENT:   1 TOTAL ITERATIONS, OF WHICH
   0 ARE SEVERE DISCONTINUITY ITERATIONS AND  1 ARE EQUILIBRIUM ITERATIONS.

 TIME INCREMENT COMPLETED   1.00    ,  FRACTION OF STEP COMPLETED   1.00    
 STEP TIME COMPLETED        2.00    ,  TOTAL TIME COMPLETED         3.00    
1

   Abaqus 2024                                  Date 26-fev-2026   Time 11:12:30
   For use by PONTIFICIA UNIVERSIDADE CATOLICA DO RIO DE JANEIRO under license from Dassault Systemes or its subsidiary.

                                                                                 
                                                                                 
 STEP    3     INCREMENT     1     STEP TIME    0.00    


                        S T E P       3     S T A T I C   A N A L Y S I S


                                                                                          

     AUTOMATIC TIME CONTROL WITH -
          A SUGGESTED INITIAL TIME INCREMENT OF                 1.00    
          AND A TOTAL TIME PERIOD OF                            3.00    
          THE MINIMUM TIME INCREMENT ALLOWED IS                3.000E-05
          THE MAXIMUM TIME INCREMENT ALLOWED IS                 3.00    

     LINEAR EQUATION SOLVER TYPE         DIRECT SPARSE

 CONVERGENCE TOLERANCE PARAMETERS FOR FORCE    
     CRITERION FOR RESIDUAL FORCE     FOR A NONLINEAR PROBLEM          5.000E-03
     CRITERION FOR DISP.    CORRECTION IN A NONLINEAR PROBLEM          1.000E-02
     INIT. VALUE OF TIME AVG. FORCE     IS TIME AVG. FORCE     IN PREVIOUS STEP
     AVERAGE FORCE     IS TIME AVERAGE FORCE    
     ALTERNATE CRIT. FOR RESIDUAL FORCE     FOR A NONLINEAR PROBLEM    2.000E-02
     CRITERION FOR ZERO FORCE     RELATIVE TO TIME AVRG. FORCE         1.000E-05
     CRITERION FOR RESIDUAL FORCE     WHEN THERE IS ZERO FLUX          1.000E-05
     CRITERION FOR DISP.    CORRECTION WHEN THERE IS ZERO FLUX         1.000E-03
     CRITERION FOR RESIDUAL FORCE     FOR A LINEAR INCREMENT           1.000E-08
     FIELD CONVERSION RATIO                                             1.00    
     CRITERION FOR ZERO FORCE     REL. TO TIME AVRG. MAX. FORCE        1.000E-05
     CRITERION FOR ZERO DISP.    RELATIVE TO CHARACTERISTIC LENGTH     1.000E-08

     VOLUMETRIC STRAIN COMPATIBILITY TOLERANCE FOR HYBRID SOLIDS       1.000E-05
     AXIAL STRAIN COMPATIBILITY TOLERANCE FOR HYBRID BEAMS             1.000E-05
     TRANS. SHEAR STRAIN COMPATIBILITY TOLERANCE FOR HYBRID BEAMS      1.000E-05
     SOFT CONTACT CONSTRAINT COMPATIBILITY TOLERANCE FOR P>P0          5.000E-03
     SOFT CONTACT CONSTRAINT COMPATIBILITY TOLERANCE FOR P=0.0         0.100    
     CONTACT FORCE ERROR TOLERANCE FOR CONVERT SDI=YES                 1.00    
     DISPLACEMENT COMPATIBILITY TOLERANCE FOR DCOUP ELEMENTS           1.000E-05
     ROTATION COMPATIBILITY TOLERANCE FOR DCOUP ELEMENTS               1.000E-05

 EQUILIBRIUM WILL BE CHECKED FOR SEVERE DISCONTINUITY ITERATIONS

 TIME INCREMENTATION CONTROL PARAMETERS:
     FIRST EQUILIBRIUM ITERATION FOR CONSECUTIVE DIVERGENCE CHECK              4
     EQUILIBRIUM ITERATION AT WHICH LOG. CONVERGENCE RATE CHECK BEGINS         8
     EQUILIBRIUM ITERATION AFTER WHICH ALTERNATE RESIDUAL IS USED              9
     MAXIMUM EQUILIBRIUM ITERATIONS ALLOWED                                   16
     EQUILIBRIUM ITERATION COUNT FOR CUT-BACK IN NEXT INCREMENT               10
     MAXIMUM EQUILIB. ITERS IN TWO INCREMENTS FOR TIME INCREMENT INCREASE      4
     MAXIMUM ITERATIONS FOR SEVERE DISCONTINUITIES                            50
     MAXIMUM ATTEMPTS ALLOWED IN AN INCREMENT                                  5
     MAXIMUM DISCON. ITERS IN TWO INCREMENTS FOR TIME INCREMENT INCREASE      50
     MAXIMUM CONTACT AUGMENTATIONS FOR *SURFACE BEHAVIOR,AUGMENTED LAGRANGE   50
     CUT-BACK FACTOR AFTER DIVERGENCE                                 0.2500    
     CUT-BACK FACTOR FOR TOO SLOW CONVERGENCE                         0.5000    
     CUT-BACK FACTOR AFTER TOO MANY EQUILIBRIUM ITERATIONS            0.7500    
     CUT-BACK FACTOR AFTER TOO MANY SEVERE DISCONTINUITY ITERATIONS   0.2500    
     CUT-BACK FACTOR AFTER PROBLEMS IN ELEMENT ASSEMBLY               0.2500    
     INCREASE FACTOR AFTER TWO INCREMENTS THAT CONVERGE QUICKLY        1.500    
     MAX. TIME INCREMENT INCREASE FACTOR ALLOWED                       1.500    
     MAX. TIME INCREMENT INCREASE FACTOR ALLOWED (DYNAMICS)            1.250    
     MAX. TIME INCREMENT INCREASE FACTOR ALLOWED (DIFFUSION)           2.000    
     MINIMUM TIME INCREMENT RATIO FOR EXTRAPOLATION TO OCCUR          0.1000    
     MAX. RATIO OF TIME INCREMENT TO STABILITY LIMIT                   1.000    
     FRACTION OF STABILITY LIMIT FOR NEW TIME INCREMENT               0.9500    
     TIME INCREMENT INCREASE FACTOR BEFORE A TIME POINT                1.000    
     GLOBAL STABILIZATION CONTROL IS NOT USED

          PRINT OF INCREMENT NUMBER, TIME, ETC., EVERY    1  INCREMENTS

     THE MAXIMUM NUMBER OF INCREMENTS IN THIS STEP IS                     100

          LARGE DISPLACEMENT THEORY WILL BE USED

          UNSYMMETRIC MATRIX STORAGE AND SOLUTION WILL BE USED

     LINEAR EXTRAPOLATION WILL BE USED

     CHARACTERISTIC ELEMENT LENGTH      16.6    

     DETAILS REGARDING ACTUAL SOLUTION WAVEFRONT REQUESTED

     DETAILED OUTPUT OF DIAGNOSTICS TO DATABASE REQUESTED

     PRINT OF INCREMENT NUMBER, TIME, ETC., TO THE MESSAGE FILE EVERY     1  INCREMENTS

     COLLECTING STEP CONSTRAINT INFORMATION FOR OVERCONSTRAINT CHECKS


  INCREMENT     1 STARTS. ATTEMPT NUMBER  1, TIME INCREMENT   1.00    

 ***WARNING: THERE ARE 33 UNCONNECTED REGIONS IN THE MODEL.

 ***NOTE: SFM TYPE SURFACE ELEMENTS USED TO DEFINE CONTACT SURFACES NOT PART OF 
          A RIGID BODY MAY INCREASE THE NUMBER OR UNCONNECTED REGIONS REPORTED.
 
	UNSYMMETRIC NEW DIRECT SPARSE SOLVER RUNNING ON
 	1 HOST x 1 MPI RANK PER HOST x 1 THREAD PER RANK
        NUMBER OF EQUATIONS:  408
        NUMBER OF RHS:        1
        NUMBER OF FLOPS:      1.360e+05
        SOLVER ELAPSED TIME:  1ms

               CONVERGENCE CHECKS FOR EQUILIBRIUM ITERATION     1


 AVERAGE FORCE                      8.782E+09   TIME AVG. FORCE       8.782E+09
 LARGEST SCALED RESIDUAL FORCE      2.289E-05   AT NODE        178   DOF  1
   INSTANCE: ANALISE-1-1                                                                     
  CORRESPONDING RESIDUAL FORCE      2.289E-05
 LARGEST INCREMENT OF DISP.         1.036E-14   AT NODE         16   DOF  2
   INSTANCE: ANALISE-1-1                                                                     
 LARGEST CORRECTION TO DISP.        1.036E-14   AT NODE         16   DOF  2
   INSTANCE: ANALISE-1-1                                                                     
          THE FORCE     EQUILIBRIUM RESPONSE WAS LINEAR IN THIS INCREMENT

 ITERATION SUMMARY FOR THE INCREMENT:   1 TOTAL ITERATIONS, OF WHICH
   0 ARE SEVERE DISCONTINUITY ITERATIONS AND  1 ARE EQUILIBRIUM ITERATIONS.

 TIME INCREMENT COMPLETED   1.00    ,  FRACTION OF STEP COMPLETED  0.333    
 STEP TIME COMPLETED        1.00    ,  TOTAL TIME COMPLETED         4.00    


  INCREMENT     2 STARTS. ATTEMPT NUMBER  1, TIME INCREMENT   1.00    
 
	UNSYMMETRIC NEW DIRECT SPARSE SOLVER RUNNING ON
 	1 HOST x 1 MPI RANK PER HOST x 1 THREAD PER RANK
        NUMBER OF EQUATIONS:  408
        NUMBER OF RHS:        1
        NUMBER OF FLOPS:      1.360e+05
        SOLVER ELAPSED TIME:  4ms

               CONVERGENCE CHECKS FOR EQUILIBRIUM ITERATION     1


 AVERAGE FORCE                      8.782E+09   TIME AVG. FORCE       8.782E+09
 LARGEST SCALED RESIDUAL FORCE      1.526E-05   AT NODE        179   DOF  1
   INSTANCE: ANALISE-1-1                                                                     
  CORRESPONDING RESIDUAL FORCE      1.526E-05
 LARGEST INCREMENT OF DISP.        -5.084E-17   AT NODE         80   DOF  2
   INSTANCE: ANALISE-1-1                                                                     
 LARGEST CORRECTION TO DISP.       -1.035E-14   AT NODE         16   DOF  2
   INSTANCE: ANALISE-1-1                                                                     
          THE FORCE     EQUILIBRIUM RESPONSE WAS LINEAR IN THIS INCREMENT

 ITERATION SUMMARY FOR THE INCREMENT:   1 TOTAL ITERATIONS, OF WHICH
   0 ARE SEVERE DISCONTINUITY ITERATIONS AND  1 ARE EQUILIBRIUM ITERATIONS.

 TIME INCREMENT COMPLETED   1.00    ,  FRACTION OF STEP COMPLETED  0.667    
 STEP TIME COMPLETED        2.00    ,  TOTAL TIME COMPLETED         5.00    


  INCREMENT     3 STARTS. ATTEMPT NUMBER  1, TIME INCREMENT   1.00    
 
	UNSYMMETRIC NEW DIRECT SPARSE SOLVER RUNNING ON
 	1 HOST x 1 MPI RANK PER HOST x 1 THREAD PER RANK
        NUMBER OF EQUATIONS:  408
        NUMBER OF RHS:        1
        NUMBER OF FLOPS:      1.360e+05
        SOLVER ELAPSED TIME:  2ms

               CONVERGENCE CHECKS FOR EQUILIBRIUM ITERATION     1


 AVERAGE FORCE                      8.782E+09   TIME AVG. FORCE       8.782E+09
 LARGEST SCALED RESIDUAL FORCE     -1.907E-05   AT NODE        195   DOF  1
   INSTANCE: ANALISE-1-1                                                                     
  CORRESPONDING RESIDUAL FORCE     -1.907E-05
 LARGEST INCREMENT OF DISP.        -1.000E-16   AT NODE        113   DOF  2
   INSTANCE: ANALISE-1-1                                                                     
 LARGEST CORRECTION TO DISP.       -1.091E-16   AT NODE        113   DOF  2
   INSTANCE: ANALISE-1-1                                                                     
          THE FORCE     EQUILIBRIUM RESPONSE WAS LINEAR IN THIS INCREMENT

 ITERATION SUMMARY FOR THE INCREMENT:   1 TOTAL ITERATIONS, OF WHICH
   0 ARE SEVERE DISCONTINUITY ITERATIONS AND  1 ARE EQUILIBRIUM ITERATIONS.

 TIME INCREMENT COMPLETED   1.00    ,  FRACTION OF STEP COMPLETED   1.00    
 STEP TIME COMPLETED        3.00    ,  TOTAL TIME COMPLETED         6.00    
1

   Abaqus 2024                                  Date 26-fev-2026   Time 11:12:31
   For use by PONTIFICIA UNIVERSIDADE CATOLICA DO RIO DE JANEIRO under license from Dassault Systemes or its subsidiary.

                                                                                 
                                                                                 
 STEP    4     INCREMENT     1     STEP TIME    0.00    


                        S T E P       4     S T A T I C   A N A L Y S I S


                                                                                          

     AUTOMATIC TIME CONTROL WITH -
          A SUGGESTED INITIAL TIME INCREMENT OF                 1.00    
          AND A TOTAL TIME PERIOD OF                            1.00    
          THE MINIMUM TIME INCREMENT ALLOWED IS                1.000E-05
          THE MAXIMUM TIME INCREMENT ALLOWED IS                 1.00    

     LINEAR EQUATION SOLVER TYPE         DIRECT SPARSE

 CONVERGENCE TOLERANCE PARAMETERS FOR FORCE    
     CRITERION FOR RESIDUAL FORCE     FOR A NONLINEAR PROBLEM          5.000E-03
     CRITERION FOR DISP.    CORRECTION IN A NONLINEAR PROBLEM          1.000E-02
     INIT. VALUE OF TIME AVG. FORCE     IS TIME AVG. FORCE     IN PREVIOUS STEP
     AVERAGE FORCE     IS TIME AVERAGE FORCE    
     ALTERNATE CRIT. FOR RESIDUAL FORCE     FOR A NONLINEAR PROBLEM    2.000E-02
     CRITERION FOR ZERO FORCE     RELATIVE TO TIME AVRG. FORCE         1.000E-05
     CRITERION FOR RESIDUAL FORCE     WHEN THERE IS ZERO FLUX          1.000E-05
     CRITERION FOR DISP.    CORRECTION WHEN THERE IS ZERO FLUX         1.000E-03
     CRITERION FOR RESIDUAL FORCE     FOR A LINEAR INCREMENT           1.000E-08
     FIELD CONVERSION RATIO                                             1.00    
     CRITERION FOR ZERO FORCE     REL. TO TIME AVRG. MAX. FORCE        1.000E-05
     CRITERION FOR ZERO DISP.    RELATIVE TO CHARACTERISTIC LENGTH     1.000E-08

     VOLUMETRIC STRAIN COMPATIBILITY TOLERANCE FOR HYBRID SOLIDS       1.000E-05
     AXIAL STRAIN COMPATIBILITY TOLERANCE FOR HYBRID BEAMS             1.000E-05
     TRANS. SHEAR STRAIN COMPATIBILITY TOLERANCE FOR HYBRID BEAMS      1.000E-05
     SOFT CONTACT CONSTRAINT COMPATIBILITY TOLERANCE FOR P>P0          5.000E-03
     SOFT CONTACT CONSTRAINT COMPATIBILITY TOLERANCE FOR P=0.0         0.100    
     CONTACT FORCE ERROR TOLERANCE FOR CONVERT SDI=YES                 1.00    
     DISPLACEMENT COMPATIBILITY TOLERANCE FOR DCOUP ELEMENTS           1.000E-05
     ROTATION COMPATIBILITY TOLERANCE FOR DCOUP ELEMENTS               1.000E-05

 EQUILIBRIUM WILL BE CHECKED FOR SEVERE DISCONTINUITY ITERATIONS

 TIME INCREMENTATION CONTROL PARAMETERS:
     FIRST EQUILIBRIUM ITERATION FOR CONSECUTIVE DIVERGENCE CHECK              4
     EQUILIBRIUM ITERATION AT WHICH LOG. CONVERGENCE RATE CHECK BEGINS         8
     EQUILIBRIUM ITERATION AFTER WHICH ALTERNATE RESIDUAL IS USED              9
     MAXIMUM EQUILIBRIUM ITERATIONS ALLOWED                                   16
     EQUILIBRIUM ITERATION COUNT FOR CUT-BACK IN NEXT INCREMENT               10
     MAXIMUM EQUILIB. ITERS IN TWO INCREMENTS FOR TIME INCREMENT INCREASE      4
     MAXIMUM ITERATIONS FOR SEVERE DISCONTINUITIES                            50
     MAXIMUM ATTEMPTS ALLOWED IN AN INCREMENT                                  5
     MAXIMUM DISCON. ITERS IN TWO INCREMENTS FOR TIME INCREMENT INCREASE      50
     MAXIMUM CONTACT AUGMENTATIONS FOR *SURFACE BEHAVIOR,AUGMENTED LAGRANGE   50
     CUT-BACK FACTOR AFTER DIVERGENCE                                 0.2500    
     CUT-BACK FACTOR FOR TOO SLOW CONVERGENCE                         0.5000    
     CUT-BACK FACTOR AFTER TOO MANY EQUILIBRIUM ITERATIONS            0.7500    
     CUT-BACK FACTOR AFTER TOO MANY SEVERE DISCONTINUITY ITERATIONS   0.2500    
     CUT-BACK FACTOR AFTER PROBLEMS IN ELEMENT ASSEMBLY               0.2500    
     INCREASE FACTOR AFTER TWO INCREMENTS THAT CONVERGE QUICKLY        1.500    
     MAX. TIME INCREMENT INCREASE FACTOR ALLOWED                       1.500    
     MAX. TIME INCREMENT INCREASE FACTOR ALLOWED (DYNAMICS)            1.250    
     MAX. TIME INCREMENT INCREASE FACTOR ALLOWED (DIFFUSION)           2.000    
     MINIMUM TIME INCREMENT RATIO FOR EXTRAPOLATION TO OCCUR          0.1000    
     MAX. RATIO OF TIME INCREMENT TO STABILITY LIMIT                   1.000    
     FRACTION OF STABILITY LIMIT FOR NEW TIME INCREMENT               0.9500    
     TIME INCREMENT INCREASE FACTOR BEFORE A TIME POINT                1.000    
     GLOBAL STABILIZATION CONTROL IS NOT USED

          PRINT OF INCREMENT NUMBER, TIME, ETC., EVERY    1  INCREMENTS

     THE MAXIMUM NUMBER OF INCREMENTS IN THIS STEP IS                     100

          LARGE DISPLACEMENT THEORY WILL BE USED

          UNSYMMETRIC MATRIX STORAGE AND SOLUTION WILL BE USED

     LINEAR EXTRAPOLATION WILL BE USED

     CHARACTERISTIC ELEMENT LENGTH      16.6    

     DETAILS REGARDING ACTUAL SOLUTION WAVEFRONT REQUESTED

     DETAILED OUTPUT OF DIAGNOSTICS TO DATABASE REQUESTED

     PRINT OF INCREMENT NUMBER, TIME, ETC., TO THE MESSAGE FILE EVERY     1  INCREMENTS

     COLLECTING STEP CONSTRAINT INFORMATION FOR OVERCONSTRAINT CHECKS


  INCREMENT     1 STARTS. ATTEMPT NUMBER  1, TIME INCREMENT   1.00    

 ***WARNING: THERE ARE 33 UNCONNECTED REGIONS IN THE MODEL.

 ***NOTE: SFM TYPE SURFACE ELEMENTS USED TO DEFINE CONTACT SURFACES NOT PART OF 
          A RIGID BODY MAY INCREASE THE NUMBER OR UNCONNECTED REGIONS REPORTED.
 
	UNSYMMETRIC NEW DIRECT SPARSE SOLVER RUNNING ON
 	1 HOST x 1 MPI RANK PER HOST x 1 THREAD PER RANK
        NUMBER OF EQUATIONS:  408
        NUMBER OF RHS:        1
        NUMBER OF FLOPS:      1.360e+05
        SOLVER ELAPSED TIME:  1ms

               CONVERGENCE CHECKS FOR EQUILIBRIUM ITERATION     1


 AVERAGE FORCE                      7.815E+09   TIME AVG. FORCE       7.815E+09
 LARGEST SCALED RESIDUAL FORCE      2.310E+05   AT NODE         70   DOF  1
   INSTANCE: ANALISE-1-1                                                                     
  CORRESPONDING RESIDUAL FORCE      2.310E+05
 LARGEST INCREMENT OF DISP.        -1.404E-04   AT NODE         13   DOF  1
   INSTANCE: ANALISE-1-1                                                                     
 LARGEST CORRECTION TO DISP.       -1.404E-04   AT NODE         13   DOF  1
   INSTANCE: ANALISE-1-1                                                                     
 ESTIMATE OF DISP.    CORRECTION    8.197E-08
 FORCE     EQUILIB. ACCEPTED BASED ON SMALL RESIDUAL AND ESTIMATED CORRECTION

 ITERATION SUMMARY FOR THE INCREMENT:   1 TOTAL ITERATIONS, OF WHICH
   0 ARE SEVERE DISCONTINUITY ITERATIONS AND  1 ARE EQUILIBRIUM ITERATIONS.

 TIME INCREMENT COMPLETED   1.00    ,  FRACTION OF STEP COMPLETED   1.00    
 STEP TIME COMPLETED        1.00    ,  TOTAL TIME COMPLETED         7.00    
1

   Abaqus 2024                                  Date 26-fev-2026   Time 11:12:31
   For use by PONTIFICIA UNIVERSIDADE CATOLICA DO RIO DE JANEIRO under license from Dassault Systemes or its subsidiary.

                                                                                 
                                                                                 
 STEP    5     INCREMENT     1     STEP TIME    0.00    


                        S T E P       5     V I S C O   A N A L Y S I S


                                                                                          

     AUTOMATIC TIME CONTROL WITH -
          A SUGGESTED INITIAL TIME INCREMENT OF                 1.00    
          AND A TOTAL TIME PERIOD OF                           1.728E+05
          THE MINIMUM TIME INCREMENT ALLOWED IS                1.000E-15
          THE MAXIMUM TIME INCREMENT ALLOWED IS                1.728E+05

     THE SIZE OF THE TIME INCREMENT IS CONTROLLED BY -
          THE PARAMETER  CETOL                                 1.000E-02

                              IMPLICIT TIME INTEGRATION WILL BE USED

 CONVERGENCE TOLERANCE PARAMETERS FOR FORCE    
     CRITERION FOR RESIDUAL FORCE     FOR A NONLINEAR PROBLEM          5.000E-03
     CRITERION FOR DISP.    CORRECTION IN A NONLINEAR PROBLEM          1.000E-02
     INIT. VALUE OF TIME AVG. FORCE     IS TIME AVG. FORCE     IN PREVIOUS STEP
     AVERAGE FORCE     IS TIME AVERAGE FORCE    
     ALTERNATE CRIT. FOR RESIDUAL FORCE     FOR A NONLINEAR PROBLEM    2.000E-02
     CRITERION FOR ZERO FORCE     RELATIVE TO TIME AVRG. FORCE         1.000E-05
     CRITERION FOR RESIDUAL FORCE     WHEN THERE IS ZERO FLUX          1.000E-05
     CRITERION FOR DISP.    CORRECTION WHEN THERE IS ZERO FLUX         1.000E-03
     CRITERION FOR RESIDUAL FORCE     FOR A LINEAR INCREMENT           1.000E-08
     FIELD CONVERSION RATIO                                             1.00    
     CRITERION FOR ZERO FORCE     REL. TO TIME AVRG. MAX. FORCE        1.000E-05
     CRITERION FOR ZERO DISP.    RELATIVE TO CHARACTERISTIC LENGTH     1.000E-08

     VOLUMETRIC STRAIN COMPATIBILITY TOLERANCE FOR HYBRID SOLIDS       1.000E-05
     AXIAL STRAIN COMPATIBILITY TOLERANCE FOR HYBRID BEAMS             1.000E-05
     TRANS. SHEAR STRAIN COMPATIBILITY TOLERANCE FOR HYBRID BEAMS      1.000E-05
     SOFT CONTACT CONSTRAINT COMPATIBILITY TOLERANCE FOR P>P0          5.000E-03
     SOFT CONTACT CONSTRAINT COMPATIBILITY TOLERANCE FOR P=0.0         0.100    
     CONTACT FORCE ERROR TOLERANCE FOR CONVERT SDI=YES                 1.00    
     DISPLACEMENT COMPATIBILITY TOLERANCE FOR DCOUP ELEMENTS           1.000E-05
     ROTATION COMPATIBILITY TOLERANCE FOR DCOUP ELEMENTS               1.000E-05

 EQUILIBRIUM WILL BE CHECKED FOR SEVERE DISCONTINUITY ITERATIONS

 TIME INCREMENTATION CONTROL PARAMETERS:
     FIRST EQUILIBRIUM ITERATION FOR CONSECUTIVE DIVERGENCE CHECK              4
     EQUILIBRIUM ITERATION AT WHICH LOG. CONVERGENCE RATE CHECK BEGINS         8
     EQUILIBRIUM ITERATION AFTER WHICH ALTERNATE RESIDUAL IS USED              9
     MAXIMUM EQUILIBRIUM ITERATIONS ALLOWED                                   16
     EQUILIBRIUM ITERATION COUNT FOR CUT-BACK IN NEXT INCREMENT               10
     MAXIMUM EQUILIB. ITERS IN TWO INCREMENTS FOR TIME INCREMENT INCREASE      4
     MAXIMUM ITERATIONS FOR SEVERE DISCONTINUITIES                            50
     MAXIMUM ATTEMPTS ALLOWED IN AN INCREMENT                                  5
     MAXIMUM DISCON. ITERS IN TWO INCREMENTS FOR TIME INCREMENT INCREASE      50
     MAXIMUM CONTACT AUGMENTATIONS FOR *SURFACE BEHAVIOR,AUGMENTED LAGRANGE   50
     CONSECUTIVE INCS MEETING TIME INTEG. TOL. FOR TIME INC. INCREASE          3
     CUT-BACK FACTOR AFTER DIVERGENCE                                 0.2500    
     CUT-BACK FACTOR FOR TOO SLOW CONVERGENCE                         0.5000    
     CUT-BACK FACTOR AFTER TOO MANY EQUILIBRIUM ITERATIONS            0.7500    
     CUT-BACK FACTOR AFTER TOO MANY SEVERE DISCONTINUITY ITERATIONS   0.2500    
     CUT-BACK FACTOR AFTER PROBLEMS IN ELEMENT ASSEMBLY               0.2500    
     INCREASE FACTOR AFTER TWO INCREMENTS THAT CONVERGE QUICKLY        1.500    
     MAX. TIME INCREMENT INCREASE FACTOR ALLOWED                       1.500    
     MAX. TIME INCREMENT INCREASE FACTOR ALLOWED (DYNAMICS)            1.250    
     MAX. TIME INCREMENT INCREASE FACTOR ALLOWED (DIFFUSION)           2.000    
     MINIMUM TIME INCREMENT RATIO FOR EXTRAPOLATION TO OCCUR          0.1000    
     CUT-BACK FACTOR WHEN TIME INTEGRATION ACCURACY TOL. EXCEEDED     0.8500    
     MAX. RATIO OF TIME INTEG. MEASURE TO TOL. FOR TIME INC. INCREASE 0.7500    
     INCREASE FACTOR FOR TIME INCREMENT WHEN POSSIBLE                 0.8000    
     MIN. TIME INC. INCREASE FACTOR IN LINEAR TRANSIENT PROBLEMS      0.9500    
     MAX. RATIO OF TIME INCREMENT TO STABILITY LIMIT                   1.000    
     FRACTION OF STABILITY LIMIT FOR NEW TIME INCREMENT               0.9500    
     TIME INCREMENT INCREASE FACTOR BEFORE A TIME POINT                1.000    
     GLOBAL STABILIZATION CONTROL IS NOT USED

          PRINT OF INCREMENT NUMBER, TIME, ETC., EVERY    1  INCREMENTS

     THE MAXIMUM NUMBER OF INCREMENTS IN THIS STEP IS                 1000000

          LARGE DISPLACEMENT THEORY WILL BE USED

          UNSYMMETRIC MATRIX STORAGE AND SOLUTION WILL BE USED

     LINEAR EXTRAPOLATION WILL BE USED

     CHARACTERISTIC ELEMENT LENGTH      16.6    

     DETAILS REGARDING ACTUAL SOLUTION WAVEFRONT REQUESTED

     DETAILED OUTPUT OF DIAGNOSTICS TO DATABASE REQUESTED

     PRINT OF INCREMENT NUMBER, TIME, ETC., TO THE MESSAGE FILE EVERY     1  INCREMENTS

     COLLECTING STEP CONSTRAINT INFORMATION FOR OVERCONSTRAINT CHECKS


  INCREMENT     1 STARTS. ATTEMPT NUMBER  1, TIME INCREMENT   1.00    

 ***WARNING: THERE ARE 33 UNCONNECTED REGIONS IN THE MODEL.

 ***NOTE: SFM TYPE SURFACE ELEMENTS USED TO DEFINE CONTACT SURFACES NOT PART OF 
          A RIGID BODY MAY INCREASE THE NUMBER OR UNCONNECTED REGIONS REPORTED.
 
	UNSYMMETRIC NEW DIRECT SPARSE SOLVER RUNNING ON
 	1 HOST x 1 MPI RANK PER HOST x 1 THREAD PER RANK
        NUMBER OF EQUATIONS:  408
        NUMBER OF RHS:        1
        NUMBER OF FLOPS:      1.360e+05
        SOLVER ELAPSED TIME:  1ms

               CONVERGENCE CHECKS FOR EQUILIBRIUM ITERATION     1


 AVERAGE FORCE                      7.815E+09   TIME AVG. FORCE       7.815E+09
 LARGEST SCALED RESIDUAL FORCE     -2.153E-03   AT NODE         70   DOF  1
   INSTANCE: ANALISE-1-1                                                                     
  CORRESPONDING RESIDUAL FORCE     -2.153E-03
 LARGEST INCREMENT OF DISP.         1.727E-08   AT NODE         70   DOF  1
   INSTANCE: ANALISE-1-1                                                                     
 LARGEST CORRECTION TO DISP.        1.727E-08   AT NODE         70   DOF  1
   INSTANCE: ANALISE-1-1                                                                     
          THE FORCE     EQUILIBRIUM RESPONSE WAS LINEAR IN THIS INCREMENT

 MAXIMUM DIFFERENCE IN CREEP STRAIN INCREMENT IS   5.452E-25

 ITERATION SUMMARY FOR THE INCREMENT:   1 TOTAL ITERATIONS, OF WHICH
   0 ARE SEVERE DISCONTINUITY ITERATIONS AND  1 ARE EQUILIBRIUM ITERATIONS.

 TIME INCREMENT COMPLETED   1.00    ,  FRACTION OF STEP COMPLETED  5.787E-06
 STEP TIME COMPLETED        1.00    ,  TOTAL TIME COMPLETED         8.00    


  INCREMENT     2 STARTS. ATTEMPT NUMBER  1, TIME INCREMENT   1.00    
 
	UNSYMMETRIC NEW DIRECT SPARSE SOLVER RUNNING ON
 	1 HOST x 1 MPI RANK PER HOST x 1 THREAD PER RANK
        NUMBER OF EQUATIONS:  408
        NUMBER OF RHS:        1
        NUMBER OF FLOPS:      1.360e+05
        SOLVER ELAPSED TIME:  4ms

               CONVERGENCE CHECKS FOR EQUILIBRIUM ITERATION     1


 AVERAGE FORCE                      7.815E+09   TIME AVG. FORCE       7.815E+09
 LARGEST SCALED RESIDUAL FORCE     -7.246E-03   AT NODE         70   DOF  1
   INSTANCE: ANALISE-1-1                                                                     
  CORRESPONDING RESIDUAL FORCE     -7.246E-03
 LARGEST INCREMENT OF DISP.        -8.730E-16   AT NODE         90   DOF  1
   INSTANCE: ANALISE-1-1                                                                     
 LARGEST CORRECTION TO DISP.       -1.727E-08   AT NODE         70   DOF  1
   INSTANCE: ANALISE-1-1                                                                     
          THE FORCE     EQUILIBRIUM RESPONSE WAS LINEAR IN THIS INCREMENT

 MAXIMUM DIFFERENCE IN CREEP STRAIN INCREMENT IS   8.892E-32

 ITERATION SUMMARY FOR THE INCREMENT:   1 TOTAL ITERATIONS, OF WHICH
   0 ARE SEVERE DISCONTINUITY ITERATIONS AND  1 ARE EQUILIBRIUM ITERATIONS.

 TIME INCREMENT COMPLETED   1.00    ,  FRACTION OF STEP COMPLETED  1.157E-05
 STEP TIME COMPLETED        2.00    ,  TOTAL TIME COMPLETED         9.00    


  INCREMENT     3 STARTS. ATTEMPT NUMBER  1, TIME INCREMENT   1.00    
 
	UNSYMMETRIC NEW DIRECT SPARSE SOLVER RUNNING ON
 	1 HOST x 1 MPI RANK PER HOST x 1 THREAD PER RANK
        NUMBER OF EQUATIONS:  408
        NUMBER OF RHS:        1
        NUMBER OF FLOPS:      1.360e+05
        SOLVER ELAPSED TIME:  1ms

               CONVERGENCE CHECKS FOR EQUILIBRIUM ITERATION     1


 AVERAGE FORCE                      7.815E+09   TIME AVG. FORCE       7.815E+09
 LARGEST SCALED RESIDUAL FORCE     -3.433E-05   AT NODE        195   DOF  1
   INSTANCE: ANALISE-1-1                                                                     
  CORRESPONDING RESIDUAL FORCE     -3.433E-05
 LARGEST INCREMENT OF DISP.        -6.586E-16   AT NODE        168   DOF  2
   INSTANCE: ANALISE-1-1                                                                     
 LARGEST CORRECTION TO DISP.        9.497E-16   AT NODE         90   DOF  1
   INSTANCE: ANALISE-1-1                                                                     
          THE FORCE     EQUILIBRIUM RESPONSE WAS LINEAR IN THIS INCREMENT

 MAXIMUM DIFFERENCE IN CREEP STRAIN INCREMENT IS   3.673E-32
          TIME INCREMENT MAY NOW INCREASE TO     2.00    

 ITERATION SUMMARY FOR THE INCREMENT:   1 TOTAL ITERATIONS, OF WHICH
   0 ARE SEVERE DISCONTINUITY ITERATIONS AND  1 ARE EQUILIBRIUM ITERATIONS.

 TIME INCREMENT COMPLETED   1.00    ,  FRACTION OF STEP COMPLETED  1.736E-05
 STEP TIME COMPLETED        3.00    ,  TOTAL TIME COMPLETED         10.0    


  INCREMENT     4 STARTS. ATTEMPT NUMBER  1, TIME INCREMENT   2.00    
 
	UNSYMMETRIC NEW DIRECT SPARSE SOLVER RUNNING ON
 	1 HOST x 1 MPI RANK PER HOST x 1 THREAD PER RANK
        NUMBER OF EQUATIONS:  408
        NUMBER OF RHS:        1
        NUMBER OF FLOPS:      1.360e+05
        SOLVER ELAPSED TIME:  1ms

               CONVERGENCE CHECKS FOR EQUILIBRIUM ITERATION     1


 AVERAGE FORCE                      7.815E+09   TIME AVG. FORCE       7.815E+09
 LARGEST SCALED RESIDUAL FORCE      2.670E-05   AT NODE        185   DOF  1
   INSTANCE: ANALISE-1-1                                                                     
  CORRESPONDING RESIDUAL FORCE      2.670E-05
 LARGEST INCREMENT OF DISP.         1.187E-16   AT NODE        150   DOF  2
   INSTANCE: ANALISE-1-1                                                                     
 LARGEST CORRECTION TO DISP.        1.432E-15   AT NODE        150   DOF  2
   INSTANCE: ANALISE-1-1                                                                     
          THE FORCE     EQUILIBRIUM RESPONSE WAS LINEAR IN THIS INCREMENT

 MAXIMUM DIFFERENCE IN CREEP STRAIN INCREMENT IS   6.711E-34
          TIME INCREMENT MAY NOW INCREASE TO     4.00    

 ITERATION SUMMARY FOR THE INCREMENT:   1 TOTAL ITERATIONS, OF WHICH
   0 ARE SEVERE DISCONTINUITY ITERATIONS AND  1 ARE EQUILIBRIUM ITERATIONS.

 TIME INCREMENT COMPLETED   2.00    ,  FRACTION OF STEP COMPLETED  2.894E-05
 STEP TIME COMPLETED        5.00    ,  TOTAL TIME COMPLETED         12.0    


  INCREMENT     5 STARTS. ATTEMPT NUMBER  1, TIME INCREMENT   4.00    
 
	UNSYMMETRIC NEW DIRECT SPARSE SOLVER RUNNING ON
 	1 HOST x 1 MPI RANK PER HOST x 1 THREAD PER RANK
        NUMBER OF EQUATIONS:  408
        NUMBER OF RHS:        1
        NUMBER OF FLOPS:      1.360e+05
        SOLVER ELAPSED TIME:  1ms

               CONVERGENCE CHECKS FOR EQUILIBRIUM ITERATION     1


 AVERAGE FORCE                      7.815E+09   TIME AVG. FORCE       7.815E+09
 LARGEST SCALED RESIDUAL FORCE      2.670E-05   AT NODE        175   DOF  1
   INSTANCE: ANALISE-1-1                                                                     
  CORRESPONDING RESIDUAL FORCE      2.670E-05
 LARGEST INCREMENT OF DISP.        -9.536E-17   AT NODE         77   DOF  2
   INSTANCE: ANALISE-1-1                                                                     
 LARGEST CORRECTION TO DISP.       -2.284E-16   AT NODE        150   DOF  2
   INSTANCE: ANALISE-1-1                                                                     
          THE FORCE     EQUILIBRIUM RESPONSE WAS LINEAR IN THIS INCREMENT

 MAXIMUM DIFFERENCE IN CREEP STRAIN INCREMENT IS   8.606E-34
          TIME INCREMENT MAY NOW INCREASE TO     8.00    

 ITERATION SUMMARY FOR THE INCREMENT:   1 TOTAL ITERATIONS, OF WHICH
   0 ARE SEVERE DISCONTINUITY ITERATIONS AND  1 ARE EQUILIBRIUM ITERATIONS.

 TIME INCREMENT COMPLETED   4.00    ,  FRACTION OF STEP COMPLETED  5.208E-05
 STEP TIME COMPLETED        9.00    ,  TOTAL TIME COMPLETED         16.0    


  INCREMENT     6 STARTS. ATTEMPT NUMBER  1, TIME INCREMENT   8.00    
 
	UNSYMMETRIC NEW DIRECT SPARSE SOLVER RUNNING ON
 	1 HOST x 1 MPI RANK PER HOST x 1 THREAD PER RANK
        NUMBER OF EQUATIONS:  408
        NUMBER OF RHS:        1
        NUMBER OF FLOPS:      1.360e+05
        SOLVER ELAPSED TIME:  6ms

               CONVERGENCE CHECKS FOR EQUILIBRIUM ITERATION     1


 AVERAGE FORCE                      7.815E+09   TIME AVG. FORCE       7.815E+09
 LARGEST SCALED RESIDUAL FORCE      2.670E-05   AT NODE        197   DOF  1
   INSTANCE: ANALISE-1-1                                                                     
  CORRESPONDING RESIDUAL FORCE      2.670E-05
 LARGEST INCREMENT OF DISP.         2.066E-16   AT NODE        201   DOF  2
   INSTANCE: ANALISE-1-1                                                                     
 LARGEST CORRECTION TO DISP.        3.484E-16   AT NODE         90   DOF  2
   INSTANCE: ANALISE-1-1                                                                     
          THE FORCE     EQUILIBRIUM RESPONSE WAS LINEAR IN THIS INCREMENT

 MAXIMUM DIFFERENCE IN CREEP STRAIN INCREMENT IS   2.227E-33
          TIME INCREMENT MAY NOW INCREASE TO     16.0    

 ITERATION SUMMARY FOR THE INCREMENT:   1 TOTAL ITERATIONS, OF WHICH
   0 ARE SEVERE DISCONTINUITY ITERATIONS AND  1 ARE EQUILIBRIUM ITERATIONS.

 TIME INCREMENT COMPLETED   8.00    ,  FRACTION OF STEP COMPLETED  9.838E-05
 STEP TIME COMPLETED        17.0    ,  TOTAL TIME COMPLETED         24.0    


  INCREMENT     7 STARTS. ATTEMPT NUMBER  1, TIME INCREMENT   16.0    
 
	UNSYMMETRIC NEW DIRECT SPARSE SOLVER RUNNING ON
 	1 HOST x 1 MPI RANK PER HOST x 1 THREAD PER RANK
        NUMBER OF EQUATIONS:  408
        NUMBER OF RHS:        1
        NUMBER OF FLOPS:      1.360e+05
        SOLVER ELAPSED TIME:  4ms

               CONVERGENCE CHECKS FOR EQUILIBRIUM ITERATION     1


 AVERAGE FORCE                      7.815E+09   TIME AVG. FORCE       7.815E+09
 LARGEST SCALED RESIDUAL FORCE     -1.907E-05   AT NODE        176   DOF  1
   INSTANCE: ANALISE-1-1                                                                     
  CORRESPONDING RESIDUAL FORCE     -1.907E-05
 LARGEST INCREMENT OF DISP.        -2.742E-16   AT NODE        172   DOF  2
   INSTANCE: ANALISE-1-1                                                                     
 LARGEST CORRECTION TO DISP.       -6.838E-16   AT NODE        151   DOF  2
   INSTANCE: ANALISE-1-1                                                                     
          THE FORCE     EQUILIBRIUM RESPONSE WAS LINEAR IN THIS INCREMENT

 MAXIMUM DIFFERENCE IN CREEP STRAIN INCREMENT IS   8.474E-33
          TIME INCREMENT MAY NOW INCREASE TO     32.0    

 ITERATION SUMMARY FOR THE INCREMENT:   1 TOTAL ITERATIONS, OF WHICH
   0 ARE SEVERE DISCONTINUITY ITERATIONS AND  1 ARE EQUILIBRIUM ITERATIONS.

 TIME INCREMENT COMPLETED   16.0    ,  FRACTION OF STEP COMPLETED  1.910E-04
 STEP TIME COMPLETED        33.0    ,  TOTAL TIME COMPLETED         40.0    


  INCREMENT     8 STARTS. ATTEMPT NUMBER  1, TIME INCREMENT   32.0    
 
	UNSYMMETRIC NEW DIRECT SPARSE SOLVER RUNNING ON
 	1 HOST x 1 MPI RANK PER HOST x 1 THREAD PER RANK
        NUMBER OF EQUATIONS:  408
        NUMBER OF RHS:        1
        NUMBER OF FLOPS:      1.360e+05
        SOLVER ELAPSED TIME:  4ms

               CONVERGENCE CHECKS FOR EQUILIBRIUM ITERATION     1


 AVERAGE FORCE                      7.815E+09   TIME AVG. FORCE       7.815E+09
 LARGEST SCALED RESIDUAL FORCE      2.289E-05   AT NODE        184   DOF  1
   INSTANCE: ANALISE-1-1                                                                     
  CORRESPONDING RESIDUAL FORCE      2.289E-05
 LARGEST INCREMENT OF DISP.         2.323E-16   AT NODE        116   DOF  2
   INSTANCE: ANALISE-1-1                                                                     
 LARGEST CORRECTION TO DISP.        7.616E-16   AT NODE        172   DOF  2
   INSTANCE: ANALISE-1-1                                                                     
          THE FORCE     EQUILIBRIUM RESPONSE WAS LINEAR IN THIS INCREMENT

 MAXIMUM DIFFERENCE IN CREEP STRAIN INCREMENT IS   2.350E-32
          TIME INCREMENT MAY NOW INCREASE TO     64.0    

 ITERATION SUMMARY FOR THE INCREMENT:   1 TOTAL ITERATIONS, OF WHICH
   0 ARE SEVERE DISCONTINUITY ITERATIONS AND  1 ARE EQUILIBRIUM ITERATIONS.

 TIME INCREMENT COMPLETED   32.0    ,  FRACTION OF STEP COMPLETED  3.762E-04
 STEP TIME COMPLETED        65.0    ,  TOTAL TIME COMPLETED         72.0    


  INCREMENT     9 STARTS. ATTEMPT NUMBER  1, TIME INCREMENT   64.0    
 
	UNSYMMETRIC NEW DIRECT SPARSE SOLVER RUNNING ON
 	1 HOST x 1 MPI RANK PER HOST x 1 THREAD PER RANK
        NUMBER OF EQUATIONS:  408
        NUMBER OF RHS:        1
        NUMBER OF FLOPS:      1.360e+05
        SOLVER ELAPSED TIME:  4ms

               CONVERGENCE CHECKS FOR EQUILIBRIUM ITERATION     1


 AVERAGE FORCE                      7.815E+09   TIME AVG. FORCE       7.815E+09
 LARGEST SCALED RESIDUAL FORCE      2.289E-05   AT NODE        180   DOF  1
   INSTANCE: ANALISE-1-1                                                                     
  CORRESPONDING RESIDUAL FORCE      2.289E-05
 LARGEST INCREMENT OF DISP.         1.793E-16   AT NODE        146   DOF  2
   INSTANCE: ANALISE-1-1                                                                     
 LARGEST CORRECTION TO DISP.       -5.191E-16   AT NODE        116   DOF  2
   INSTANCE: ANALISE-1-1                                                                     
          THE FORCE     EQUILIBRIUM RESPONSE WAS LINEAR IN THIS INCREMENT

 MAXIMUM DIFFERENCE IN CREEP STRAIN INCREMENT IS   4.160E-32
          TIME INCREMENT MAY NOW INCREASE TO     128.    

 ITERATION SUMMARY FOR THE INCREMENT:   1 TOTAL ITERATIONS, OF WHICH
   0 ARE SEVERE DISCONTINUITY ITERATIONS AND  1 ARE EQUILIBRIUM ITERATIONS.

 TIME INCREMENT COMPLETED   64.0    ,  FRACTION OF STEP COMPLETED  7.465E-04
 STEP TIME COMPLETED        129.    ,  TOTAL TIME COMPLETED         136.    


  INCREMENT    10 STARTS. ATTEMPT NUMBER  1, TIME INCREMENT   128.    
 
	UNSYMMETRIC NEW DIRECT SPARSE SOLVER RUNNING ON
 	1 HOST x 1 MPI RANK PER HOST x 1 THREAD PER RANK
        NUMBER OF EQUATIONS:  408
        NUMBER OF RHS:        1
        NUMBER OF FLOPS:      1.360e+05
        SOLVER ELAPSED TIME:  6ms

               CONVERGENCE CHECKS FOR EQUILIBRIUM ITERATION     1


 AVERAGE FORCE                      7.815E+09   TIME AVG. FORCE       7.815E+09
 LARGEST SCALED RESIDUAL FORCE      2.670E-05   AT NODE        185   DOF  1
   INSTANCE: ANALISE-1-1                                                                     
  CORRESPONDING RESIDUAL FORCE      2.670E-05
 LARGEST INCREMENT OF DISP.        -3.912E-16   AT NODE        150   DOF  2
   INSTANCE: ANALISE-1-1                                                                     
 LARGEST CORRECTION TO DISP.       -7.394E-16   AT NODE        146   DOF  2
   INSTANCE: ANALISE-1-1                                                                     
          THE FORCE     EQUILIBRIUM RESPONSE WAS LINEAR IN THIS INCREMENT

 MAXIMUM DIFFERENCE IN CREEP STRAIN INCREMENT IS   1.417E-31
          TIME INCREMENT MAY NOW INCREASE TO     256.    

 ITERATION SUMMARY FOR THE INCREMENT:   1 TOTAL ITERATIONS, OF WHICH
   0 ARE SEVERE DISCONTINUITY ITERATIONS AND  1 ARE EQUILIBRIUM ITERATIONS.

 TIME INCREMENT COMPLETED   128.    ,  FRACTION OF STEP COMPLETED  1.487E-03
 STEP TIME COMPLETED        257.    ,  TOTAL TIME COMPLETED         264.    


  INCREMENT    11 STARTS. ATTEMPT NUMBER  1, TIME INCREMENT   256.    
 
	UNSYMMETRIC NEW DIRECT SPARSE SOLVER RUNNING ON
 	1 HOST x 1 MPI RANK PER HOST x 1 THREAD PER RANK
        NUMBER OF EQUATIONS:  408
        NUMBER OF RHS:        1
        NUMBER OF FLOPS:      1.360e+05
        SOLVER ELAPSED TIME:  4ms

               CONVERGENCE CHECKS FOR EQUILIBRIUM ITERATION     1


 AVERAGE FORCE                      7.815E+09   TIME AVG. FORCE       7.815E+09
 LARGEST SCALED RESIDUAL FORCE      1.907E-05   AT NODE        179   DOF  1
   INSTANCE: ANALISE-1-1                                                                     
  CORRESPONDING RESIDUAL FORCE      1.907E-05
 LARGEST INCREMENT OF DISP.         2.534E-16   AT NODE        197   DOF  2
   INSTANCE: ANALISE-1-1                                                                     
 LARGEST CORRECTION TO DISP.        1.032E-15   AT NODE        150   DOF  2
   INSTANCE: ANALISE-1-1                                                                     
          THE FORCE     EQUILIBRIUM RESPONSE WAS LINEAR IN THIS INCREMENT

 MAXIMUM DIFFERENCE IN CREEP STRAIN INCREMENT IS   4.098E-31
          TIME INCREMENT MAY NOW INCREASE TO     512.    

 ITERATION SUMMARY FOR THE INCREMENT:   1 TOTAL ITERATIONS, OF WHICH
   0 ARE SEVERE DISCONTINUITY ITERATIONS AND  1 ARE EQUILIBRIUM ITERATIONS.

 TIME INCREMENT COMPLETED   256.    ,  FRACTION OF STEP COMPLETED  2.969E-03
 STEP TIME COMPLETED        513.    ,  TOTAL TIME COMPLETED         520.    


  INCREMENT    12 STARTS. ATTEMPT NUMBER  1, TIME INCREMENT   512.    
 
	UNSYMMETRIC NEW DIRECT SPARSE SOLVER RUNNING ON
 	1 HOST x 1 MPI RANK PER HOST x 1 THREAD PER RANK
        NUMBER OF EQUATIONS:  408
        NUMBER OF RHS:        1
        NUMBER OF FLOPS:      1.360e+05
        SOLVER ELAPSED TIME:  4ms

               CONVERGENCE CHECKS FOR EQUILIBRIUM ITERATION     1


 AVERAGE FORCE                      7.815E+09   TIME AVG. FORCE       7.815E+09
 LARGEST SCALED RESIDUAL FORCE     -1.907E-05   AT NODE         71   DOF  1
   INSTANCE: ANALISE-1-1                                                                     
  CORRESPONDING RESIDUAL FORCE     -1.907E-05
 LARGEST INCREMENT OF DISP.        -5.671E-17   AT NODE         83   DOF  1
   INSTANCE: ANALISE-1-1                                                                     
 LARGEST CORRECTION TO DISP.       -4.965E-16   AT NODE        197   DOF  2
   INSTANCE: ANALISE-1-1                                                                     
          THE FORCE     EQUILIBRIUM RESPONSE WAS LINEAR IN THIS INCREMENT

 MAXIMUM DIFFERENCE IN CREEP STRAIN INCREMENT IS   6.853E-30
          TIME INCREMENT MAY NOW INCREASE TO    1.024E+03

 ITERATION SUMMARY FOR THE INCREMENT:   1 TOTAL ITERATIONS, OF WHICH
   0 ARE SEVERE DISCONTINUITY ITERATIONS AND  1 ARE EQUILIBRIUM ITERATIONS.

 TIME INCREMENT COMPLETED   512.    ,  FRACTION OF STEP COMPLETED  5.932E-03
 STEP TIME COMPLETED       1.025E+03,  TOTAL TIME COMPLETED        1.032E+03


  INCREMENT    13 STARTS. ATTEMPT NUMBER  1, TIME INCREMENT  1.024E+03
 
	UNSYMMETRIC NEW DIRECT SPARSE SOLVER RUNNING ON
 	1 HOST x 1 MPI RANK PER HOST x 1 THREAD PER RANK
        NUMBER OF EQUATIONS:  408
        NUMBER OF RHS:        1
        NUMBER OF FLOPS:      1.360e+05
        SOLVER ELAPSED TIME:  1ms

               CONVERGENCE CHECKS FOR EQUILIBRIUM ITERATION     1


 AVERAGE FORCE                      7.815E+09   TIME AVG. FORCE       7.815E+09
 LARGEST SCALED RESIDUAL FORCE     -2.670E-05   AT NODE        183   DOF  1
   INSTANCE: ANALISE-1-1                                                                     
  CORRESPONDING RESIDUAL FORCE     -2.670E-05
 LARGEST INCREMENT OF DISP.        -1.619E-16   AT NODE         13   DOF  1
   INSTANCE: ANALISE-1-1                                                                     
 LARGEST CORRECTION TO DISP.       -9.382E-17   AT NODE         75   DOF  2
   INSTANCE: ANALISE-1-1                                                                     
          THE FORCE     EQUILIBRIUM RESPONSE WAS LINEAR IN THIS INCREMENT

 MAXIMUM DIFFERENCE IN CREEP STRAIN INCREMENT IS   6.424E-29
          TIME INCREMENT MAY NOW INCREASE TO    1.551E+03

 ITERATION SUMMARY FOR THE INCREMENT:   1 TOTAL ITERATIONS, OF WHICH
   0 ARE SEVERE DISCONTINUITY ITERATIONS AND  1 ARE EQUILIBRIUM ITERATIONS.

 TIME INCREMENT COMPLETED  1.024E+03,  FRACTION OF STEP COMPLETED  1.186E-02
 STEP TIME COMPLETED       2.049E+03,  TOTAL TIME COMPLETED        2.056E+03


  INCREMENT    14 STARTS. ATTEMPT NUMBER  1, TIME INCREMENT  1.551E+03
 
	UNSYMMETRIC NEW DIRECT SPARSE SOLVER RUNNING ON
 	1 HOST x 1 MPI RANK PER HOST x 1 THREAD PER RANK
        NUMBER OF EQUATIONS:  408
        NUMBER OF RHS:        1
        NUMBER OF FLOPS:      1.360e+05
        SOLVER ELAPSED TIME:  2ms

               CONVERGENCE CHECKS FOR EQUILIBRIUM ITERATION     1


 AVERAGE FORCE                      7.815E+09   TIME AVG. FORCE       7.815E+09
 LARGEST SCALED RESIDUAL FORCE      2.670E-05   AT NODE        180   DOF  1
   INSTANCE: ANALISE-1-1                                                                     
  CORRESPONDING RESIDUAL FORCE      2.670E-05
 LARGEST INCREMENT OF DISP.        -3.854E-16   AT NODE         13   DOF  1
   INSTANCE: ANALISE-1-1                                                                     
 LARGEST CORRECTION TO DISP.       -1.401E-16   AT NODE         13   DOF  1
   INSTANCE: ANALISE-1-1                                                                     
          THE FORCE     EQUILIBRIUM RESPONSE WAS LINEAR IN THIS INCREMENT

 MAXIMUM DIFFERENCE IN CREEP STRAIN INCREMENT IS   3.460E-28
          TIME INCREMENT MAY NOW INCREASE TO    3.600E+03

 ITERATION SUMMARY FOR THE INCREMENT:   1 TOTAL ITERATIONS, OF WHICH
   0 ARE SEVERE DISCONTINUITY ITERATIONS AND  1 ARE EQUILIBRIUM ITERATIONS.

 TIME INCREMENT COMPLETED  1.551E+03,  FRACTION OF STEP COMPLETED  2.083E-02
 STEP TIME COMPLETED       3.600E+03,  TOTAL TIME COMPLETED        3.607E+03


  INCREMENT    15 STARTS. ATTEMPT NUMBER  1, TIME INCREMENT  3.600E+03
 
	UNSYMMETRIC NEW DIRECT SPARSE SOLVER RUNNING ON
 	1 HOST x 1 MPI RANK PER HOST x 1 THREAD PER RANK
        NUMBER OF EQUATIONS:  408
        NUMBER OF RHS:        1
        NUMBER OF FLOPS:      1.360e+05
        SOLVER ELAPSED TIME:  4ms

               CONVERGENCE CHECKS FOR EQUILIBRIUM ITERATION     1


 AVERAGE FORCE                      7.815E+09   TIME AVG. FORCE       7.815E+09
 LARGEST SCALED RESIDUAL FORCE      2.289E-05   AT NODE        178   DOF  1
   INSTANCE: ANALISE-1-1                                                                     
  CORRESPONDING RESIDUAL FORCE      2.289E-05
 LARGEST INCREMENT OF DISP.        -1.377E-15   AT NODE         13   DOF  1
   INSTANCE: ANALISE-1-1                                                                     
 LARGEST CORRECTION TO DISP.       -5.049E-16   AT NODE         83   DOF  1
   INSTANCE: ANALISE-1-1                                                                     
          THE FORCE     EQUILIBRIUM RESPONSE WAS LINEAR IN THIS INCREMENT

 MAXIMUM DIFFERENCE IN CREEP STRAIN INCREMENT IS   4.645E-27
          TIME INCREMENT MAY NOW INCREASE TO    7.200E+03

 ITERATION SUMMARY FOR THE INCREMENT:   1 TOTAL ITERATIONS, OF WHICH
   0 ARE SEVERE DISCONTINUITY ITERATIONS AND  1 ARE EQUILIBRIUM ITERATIONS.

 TIME INCREMENT COMPLETED  3.600E+03,  FRACTION OF STEP COMPLETED  4.167E-02
 STEP TIME COMPLETED       7.200E+03,  TOTAL TIME COMPLETED        7.207E+03


  INCREMENT    16 STARTS. ATTEMPT NUMBER  1, TIME INCREMENT  7.200E+03
 
	UNSYMMETRIC NEW DIRECT SPARSE SOLVER RUNNING ON
 	1 HOST x 1 MPI RANK PER HOST x 1 THREAD PER RANK
        NUMBER OF EQUATIONS:  408
        NUMBER OF RHS:        1
        NUMBER OF FLOPS:      1.360e+05
        SOLVER ELAPSED TIME:  1ms

               CONVERGENCE CHECKS FOR EQUILIBRIUM ITERATION     1


 AVERAGE FORCE                      7.815E+09   TIME AVG. FORCE       7.815E+09
 LARGEST SCALED RESIDUAL FORCE      3.433E-05   AT NODE        183   DOF  1
   INSTANCE: ANALISE-1-1                                                                     
  CORRESPONDING RESIDUAL FORCE      3.433E-05
 LARGEST INCREMENT OF DISP.        -4.489E-15   AT NODE         13   DOF  1
   INSTANCE: ANALISE-1-1                                                                     
 LARGEST CORRECTION TO DISP.       -1.734E-15   AT NODE         13   DOF  1
   INSTANCE: ANALISE-1-1                                                                     
          THE FORCE     EQUILIBRIUM RESPONSE WAS LINEAR IN THIS INCREMENT

 MAXIMUM DIFFERENCE IN CREEP STRAIN INCREMENT IS   4.881E-26
          TIME INCREMENT MAY NOW INCREASE TO    1.440E+04

 ITERATION SUMMARY FOR THE INCREMENT:   1 TOTAL ITERATIONS, OF WHICH
   0 ARE SEVERE DISCONTINUITY ITERATIONS AND  1 ARE EQUILIBRIUM ITERATIONS.

 TIME INCREMENT COMPLETED  7.200E+03,  FRACTION OF STEP COMPLETED  8.333E-02
 STEP TIME COMPLETED       1.440E+04,  TOTAL TIME COMPLETED        1.441E+04


  INCREMENT    17 STARTS. ATTEMPT NUMBER  1, TIME INCREMENT  1.440E+04
 
	UNSYMMETRIC NEW DIRECT SPARSE SOLVER RUNNING ON
 	1 HOST x 1 MPI RANK PER HOST x 1 THREAD PER RANK
        NUMBER OF EQUATIONS:  408
        NUMBER OF RHS:        1
        NUMBER OF FLOPS:      1.360e+05
        SOLVER ELAPSED TIME:  4ms

               CONVERGENCE CHECKS FOR EQUILIBRIUM ITERATION     1


 AVERAGE FORCE                      7.815E+09   TIME AVG. FORCE       7.815E+09
 LARGEST SCALED RESIDUAL FORCE      2.289E-05   AT NODE        181   DOF  1
   INSTANCE: ANALISE-1-1                                                                     
  CORRESPONDING RESIDUAL FORCE      2.289E-05
 LARGEST INCREMENT OF DISP.        -1.458E-14   AT NODE         13   DOF  1
   INSTANCE: ANALISE-1-1                                                                     
 LARGEST CORRECTION TO DISP.       -5.598E-15   AT NODE         13   DOF  1
   INSTANCE: ANALISE-1-1                                                                     
          THE FORCE     EQUILIBRIUM RESPONSE WAS LINEAR IN THIS INCREMENT

 MAXIMUM DIFFERENCE IN CREEP STRAIN INCREMENT IS   5.146E-25
          TIME INCREMENT MAY NOW INCREASE TO    2.880E+04

 ITERATION SUMMARY FOR THE INCREMENT:   1 TOTAL ITERATIONS, OF WHICH
   0 ARE SEVERE DISCONTINUITY ITERATIONS AND  1 ARE EQUILIBRIUM ITERATIONS.

 TIME INCREMENT COMPLETED  1.440E+04,  FRACTION OF STEP COMPLETED  0.167    
 STEP TIME COMPLETED       2.880E+04,  TOTAL TIME COMPLETED        2.881E+04


  INCREMENT    18 STARTS. ATTEMPT NUMBER  1, TIME INCREMENT  2.880E+04
 
	UNSYMMETRIC NEW DIRECT SPARSE SOLVER RUNNING ON
 	1 HOST x 1 MPI RANK PER HOST x 1 THREAD PER RANK
        NUMBER OF EQUATIONS:  408
        NUMBER OF RHS:        1
        NUMBER OF FLOPS:      1.360e+05
        SOLVER ELAPSED TIME:  4ms

               CONVERGENCE CHECKS FOR EQUILIBRIUM ITERATION     1


 AVERAGE FORCE                      7.815E+09   TIME AVG. FORCE       7.815E+09
 LARGEST SCALED RESIDUAL FORCE     -3.433E-05   AT NODE        179   DOF  1
   INSTANCE: ANALISE-1-1                                                                     
  CORRESPONDING RESIDUAL FORCE     -3.433E-05
 LARGEST INCREMENT OF DISP.        -4.734E-14   AT NODE         13   DOF  1
   INSTANCE: ANALISE-1-1                                                                     
 LARGEST CORRECTION TO DISP.       -1.819E-14   AT NODE         13   DOF  1
   INSTANCE: ANALISE-1-1                                                                     
          THE FORCE     EQUILIBRIUM RESPONSE WAS LINEAR IN THIS INCREMENT

 MAXIMUM DIFFERENCE IN CREEP STRAIN INCREMENT IS   5.437E-24
          TIME INCREMENT MAY NOW INCREASE TO    5.760E+04
          TIME INCREMENT REDUCED TO   2.880E+04 TO MEET NEXT OUTPUT TIME POINT

 ITERATION SUMMARY FOR THE INCREMENT:   1 TOTAL ITERATIONS, OF WHICH
   0 ARE SEVERE DISCONTINUITY ITERATIONS AND  1 ARE EQUILIBRIUM ITERATIONS.

 TIME INCREMENT COMPLETED  2.880E+04,  FRACTION OF STEP COMPLETED  0.333    
 STEP TIME COMPLETED       5.760E+04,  TOTAL TIME COMPLETED        5.761E+04


  INCREMENT    19 STARTS. ATTEMPT NUMBER  1, TIME INCREMENT  2.880E+04
 
	UNSYMMETRIC NEW DIRECT SPARSE SOLVER RUNNING ON
 	1 HOST x 1 MPI RANK PER HOST x 1 THREAD PER RANK
        NUMBER OF EQUATIONS:  408
        NUMBER OF RHS:        1
        NUMBER OF FLOPS:      1.360e+05
        SOLVER ELAPSED TIME:  3ms

               CONVERGENCE CHECKS FOR EQUILIBRIUM ITERATION     1


 AVERAGE FORCE                      7.815E+09   TIME AVG. FORCE       7.815E+09
 LARGEST SCALED RESIDUAL FORCE      3.815E-05   AT NODE        181   DOF  1
   INSTANCE: ANALISE-1-1                                                                     
  CORRESPONDING RESIDUAL FORCE      3.815E-05
 LARGEST INCREMENT OF DISP.        -6.786E-14   AT NODE         13   DOF  1
   INSTANCE: ANALISE-1-1                                                                     
 LARGEST CORRECTION TO DISP.       -2.052E-14   AT NODE         13   DOF  1
   INSTANCE: ANALISE-1-1                                                                     
          THE FORCE     EQUILIBRIUM RESPONSE WAS LINEAR IN THIS INCREMENT

 MAXIMUM DIFFERENCE IN CREEP STRAIN INCREMENT IS   1.117E-23
          TIME INCREMENT MAY NOW INCREASE TO    8.640E+04

 ITERATION SUMMARY FOR THE INCREMENT:   1 TOTAL ITERATIONS, OF WHICH
   0 ARE SEVERE DISCONTINUITY ITERATIONS AND  1 ARE EQUILIBRIUM ITERATIONS.

 TIME INCREMENT COMPLETED  2.880E+04,  FRACTION OF STEP COMPLETED  0.500    
 STEP TIME COMPLETED       8.640E+04,  TOTAL TIME COMPLETED        8.641E+04


  INCREMENT    20 STARTS. ATTEMPT NUMBER  1, TIME INCREMENT  8.640E+04
 
	UNSYMMETRIC NEW DIRECT SPARSE SOLVER RUNNING ON
 	1 HOST x 1 MPI RANK PER HOST x 1 THREAD PER RANK
        NUMBER OF EQUATIONS:  408
        NUMBER OF RHS:        1
        NUMBER OF FLOPS:      1.360e+05
        SOLVER ELAPSED TIME:  6ms

               CONVERGENCE CHECKS FOR EQUILIBRIUM ITERATION     1


 AVERAGE FORCE                      7.815E+09   TIME AVG. FORCE       7.815E+09
 LARGEST SCALED RESIDUAL FORCE     -3.815E-05   AT NODE        179   DOF  1
   INSTANCE: ANALISE-1-1                                                                     
  CORRESPONDING RESIDUAL FORCE     -3.815E-05
 LARGEST INCREMENT OF DISP.        -3.064E-13   AT NODE         13   DOF  1
   INSTANCE: ANALISE-1-1                                                                     
 LARGEST CORRECTION TO DISP.       -1.028E-13   AT NODE         13   DOF  1
   INSTANCE: ANALISE-1-1                                                                     
          THE FORCE     EQUILIBRIUM RESPONSE WAS LINEAR IN THIS INCREMENT

 MAXIMUM DIFFERENCE IN CREEP STRAIN INCREMENT IS   2.277E-22

 ITERATION SUMMARY FOR THE INCREMENT:   1 TOTAL ITERATIONS, OF WHICH
   0 ARE SEVERE DISCONTINUITY ITERATIONS AND  1 ARE EQUILIBRIUM ITERATIONS.

 TIME INCREMENT COMPLETED  8.640E+04,  FRACTION OF STEP COMPLETED   1.00    
 STEP TIME COMPLETED       1.728E+05,  TOTAL TIME COMPLETED        1.728E+05
1

   Abaqus 2024                                  Date 26-fev-2026   Time 11:12:31
   For use by PONTIFICIA UNIVERSIDADE CATOLICA DO RIO DE JANEIRO under license from Dassault Systemes or its subsidiary.

                                                                                 
                                                                                 
 STEP    6     INCREMENT     1     STEP TIME    0.00    


                        S T E P       6     S T A T I C   A N A L Y S I S


                                                                                          

     AUTOMATIC TIME CONTROL WITH -
          A SUGGESTED INITIAL TIME INCREMENT OF                 1.00    
          AND A TOTAL TIME PERIOD OF                            1.00    
          THE MINIMUM TIME INCREMENT ALLOWED IS                1.000E-15
          THE MAXIMUM TIME INCREMENT ALLOWED IS                 1.00    

     LINEAR EQUATION SOLVER TYPE         DIRECT SPARSE

 CONVERGENCE TOLERANCE PARAMETERS FOR FORCE    
     CRITERION FOR RESIDUAL FORCE     FOR A NONLINEAR PROBLEM          5.000E-03
     CRITERION FOR DISP.    CORRECTION IN A NONLINEAR PROBLEM          1.000E-02
     INIT. VALUE OF TIME AVG. FORCE     IS TIME AVG. FORCE     IN PREVIOUS STEP
     AVERAGE FORCE     IS TIME AVERAGE FORCE    
     ALTERNATE CRIT. FOR RESIDUAL FORCE     FOR A NONLINEAR PROBLEM    2.000E-02
     CRITERION FOR ZERO FORCE     RELATIVE TO TIME AVRG. FORCE         1.000E-05
     CRITERION FOR RESIDUAL FORCE     WHEN THERE IS ZERO FLUX          1.000E-05
     CRITERION FOR DISP.    CORRECTION WHEN THERE IS ZERO FLUX         1.000E-03
     CRITERION FOR RESIDUAL FORCE     FOR A LINEAR INCREMENT           1.000E-08
     FIELD CONVERSION RATIO                                             1.00    
     CRITERION FOR ZERO FORCE     REL. TO TIME AVRG. MAX. FORCE        1.000E-05
     CRITERION FOR ZERO DISP.    RELATIVE TO CHARACTERISTIC LENGTH     1.000E-08

     VOLUMETRIC STRAIN COMPATIBILITY TOLERANCE FOR HYBRID SOLIDS       1.000E-05
     AXIAL STRAIN COMPATIBILITY TOLERANCE FOR HYBRID BEAMS             1.000E-05
     TRANS. SHEAR STRAIN COMPATIBILITY TOLERANCE FOR HYBRID BEAMS      1.000E-05
     SOFT CONTACT CONSTRAINT COMPATIBILITY TOLERANCE FOR P>P0          5.000E-03
     SOFT CONTACT CONSTRAINT COMPATIBILITY TOLERANCE FOR P=0.0         0.100    
     CONTACT FORCE ERROR TOLERANCE FOR CONVERT SDI=YES                 1.00    
     DISPLACEMENT COMPATIBILITY TOLERANCE FOR DCOUP ELEMENTS           1.000E-05
     ROTATION COMPATIBILITY TOLERANCE FOR DCOUP ELEMENTS               1.000E-05

 EQUILIBRIUM WILL BE CHECKED FOR SEVERE DISCONTINUITY ITERATIONS

 TIME INCREMENTATION CONTROL PARAMETERS:
     FIRST EQUILIBRIUM ITERATION FOR CONSECUTIVE DIVERGENCE CHECK              4
     EQUILIBRIUM ITERATION AT WHICH LOG. CONVERGENCE RATE CHECK BEGINS         8
     EQUILIBRIUM ITERATION AFTER WHICH ALTERNATE RESIDUAL IS USED              9
     MAXIMUM EQUILIBRIUM ITERATIONS ALLOWED                                   16
     EQUILIBRIUM ITERATION COUNT FOR CUT-BACK IN NEXT INCREMENT               10
     MAXIMUM EQUILIB. ITERS IN TWO INCREMENTS FOR TIME INCREMENT INCREASE      4
     MAXIMUM ITERATIONS FOR SEVERE DISCONTINUITIES                            50
     MAXIMUM ATTEMPTS ALLOWED IN AN INCREMENT                                  5
     MAXIMUM DISCON. ITERS IN TWO INCREMENTS FOR TIME INCREMENT INCREASE      50
     MAXIMUM CONTACT AUGMENTATIONS FOR *SURFACE BEHAVIOR,AUGMENTED LAGRANGE   50
     CUT-BACK FACTOR AFTER DIVERGENCE                                 0.2500    
     CUT-BACK FACTOR FOR TOO SLOW CONVERGENCE                         0.5000    
     CUT-BACK FACTOR AFTER TOO MANY EQUILIBRIUM ITERATIONS            0.7500    
     CUT-BACK FACTOR AFTER TOO MANY SEVERE DISCONTINUITY ITERATIONS   0.2500    
     CUT-BACK FACTOR AFTER PROBLEMS IN ELEMENT ASSEMBLY               0.2500    
     INCREASE FACTOR AFTER TWO INCREMENTS THAT CONVERGE QUICKLY        1.500    
     MAX. TIME INCREMENT INCREASE FACTOR ALLOWED                       1.500    
     MAX. TIME INCREMENT INCREASE FACTOR ALLOWED (DYNAMICS)            1.250    
     MAX. TIME INCREMENT INCREASE FACTOR ALLOWED (DIFFUSION)           2.000    
     MINIMUM TIME INCREMENT RATIO FOR EXTRAPOLATION TO OCCUR          0.1000    
     MAX. RATIO OF TIME INCREMENT TO STABILITY LIMIT                   1.000    
     FRACTION OF STABILITY LIMIT FOR NEW TIME INCREMENT               0.9500    
     TIME INCREMENT INCREASE FACTOR BEFORE A TIME POINT                1.000    
     GLOBAL STABILIZATION CONTROL IS NOT USED

          PRINT OF INCREMENT NUMBER, TIME, ETC., EVERY    1  INCREMENTS

     THE MAXIMUM NUMBER OF INCREMENTS IN THIS STEP IS                     100

          LARGE DISPLACEMENT THEORY WILL BE USED

          UNSYMMETRIC MATRIX STORAGE AND SOLUTION WILL BE USED

     LINEAR EXTRAPOLATION WILL BE USED

     CHARACTERISTIC ELEMENT LENGTH      16.6    

     DETAILS REGARDING ACTUAL SOLUTION WAVEFRONT REQUESTED

     DETAILED OUTPUT OF DIAGNOSTICS TO DATABASE REQUESTED

     PRINT OF INCREMENT NUMBER, TIME, ETC., TO THE MESSAGE FILE EVERY     1  INCREMENTS

 ***WARNING: ELEMENT 1 INSTANCE ANALISE-1-1 HAS AN ASPECT RATIO EXCEEDING 100 
             TO 1.

 ***WARNING: ELEMENT 2 INSTANCE ANALISE-1-1 HAS AN ASPECT RATIO EXCEEDING 100 
             TO 1.

 ***WARNING: ELEMENT 3 INSTANCE ANALISE-1-1 HAS AN ASPECT RATIO EXCEEDING 100 
             TO 1.

 ***WARNING: ELEMENT 4 INSTANCE ANALISE-1-1 HAS AN ASPECT RATIO EXCEEDING 100 
             TO 1.

 ***WARNING: ELEMENT 5 INSTANCE ANALISE-1-1 HAS AN ASPECT RATIO EXCEEDING 100 
             TO 1.

 ***WARNING: ELEMENT 6 INSTANCE ANALISE-1-1 HAS AN ASPECT RATIO EXCEEDING 100 
             TO 1.

 ***WARNING: ELEMENT 7 INSTANCE ANALISE-1-1 HAS AN ASPECT RATIO EXCEEDING 100 
             TO 1.

 ***WARNING: ELEMENT 8 INSTANCE ANALISE-1-1 HAS AN ASPECT RATIO EXCEEDING 100 
             TO 1.

 ***WARNING: ELEMENT 9 INSTANCE ANALISE-1-1 HAS AN ASPECT RATIO EXCEEDING 100 
             TO 1.

 ***WARNING: ELEMENT 10 INSTANCE ANALISE-1-1 HAS AN ASPECT RATIO EXCEEDING 100 
             TO 1.

 ***WARNING: ELEMENT 11 INSTANCE ANALISE-1-1 HAS AN ASPECT RATIO EXCEEDING 100 
             TO 1.

 ***WARNING: ELEMENT 12 INSTANCE ANALISE-1-1 HAS AN ASPECT RATIO EXCEEDING 100 
             TO 1.

 ***WARNING: ELEMENT 13 INSTANCE ANALISE-1-1 HAS AN ASPECT RATIO EXCEEDING 100 
             TO 1.

 ***WARNING: ELEMENT 14 INSTANCE ANALISE-1-1 HAS AN ASPECT RATIO EXCEEDING 100 
             TO 1.

 ***WARNING: ELEMENT 15 INSTANCE ANALISE-1-1 HAS AN ASPECT RATIO EXCEEDING 100 
             TO 1.

 ***WARNING: ELEMENT 16 INSTANCE ANALISE-1-1 HAS AN ASPECT RATIO EXCEEDING 100 
             TO 1.

 ***WARNING: ELEMENT 17 INSTANCE ANALISE-1-1 HAS AN ASPECT RATIO EXCEEDING 100 
             TO 1.

 ***WARNING: ELEMENT 18 INSTANCE ANALISE-1-1 HAS AN ASPECT RATIO EXCEEDING 100 
             TO 1.

 ***WARNING: ELEMENT 19 INSTANCE ANALISE-1-1 HAS AN ASPECT RATIO EXCEEDING 100 
             TO 1.

 ***WARNING: ELEMENT 20 INSTANCE ANALISE-1-1 HAS AN ASPECT RATIO EXCEEDING 100 
             TO 1.

 ***WARNING: ELEMENT 21 INSTANCE ANALISE-1-1 HAS AN ASPECT RATIO EXCEEDING 100 
             TO 1.

 ***WARNING: ELEMENT 22 INSTANCE ANALISE-1-1 HAS AN ASPECT RATIO EXCEEDING 100 
             TO 1.

 ***WARNING: ELEMENT 56 INSTANCE ANALISE-1-1 HAS AN ASPECT RATIO EXCEEDING 100 
             TO 1.

 ***WARNING: ELEMENT 57 INSTANCE ANALISE-1-1 HAS AN ASPECT RATIO EXCEEDING 100 
             TO 1.

 ***WARNING: ELEMENT 58 INSTANCE ANALISE-1-1 HAS AN ASPECT RATIO EXCEEDING 100 
             TO 1.

 ***WARNING: ELEMENT 59 INSTANCE ANALISE-1-1 HAS AN ASPECT RATIO EXCEEDING 100 
             TO 1.

 ***WARNING: ELEMENT 60 INSTANCE ANALISE-1-1 HAS AN ASPECT RATIO EXCEEDING 100 
             TO 1.

 ***WARNING: ELEMENT 61 INSTANCE ANALISE-1-1 HAS AN ASPECT RATIO EXCEEDING 100 
             TO 1.

 ***WARNING: ELEMENT 62 INSTANCE ANALISE-1-1 HAS AN ASPECT RATIO EXCEEDING 100 
             TO 1.

 ***WARNING: ELEMENT 63 INSTANCE ANALISE-1-1 HAS AN ASPECT RATIO EXCEEDING 100 
             TO 1.

 ***WARNING: ELEMENT 64 INSTANCE ANALISE-1-1 HAS AN ASPECT RATIO EXCEEDING 100 
             TO 1.

 ***WARNING: ELEMENT 65 INSTANCE ANALISE-1-1 HAS AN ASPECT RATIO EXCEEDING 100 
             TO 1.

 ***WARNING: ELEMENT 66 INSTANCE ANALISE-1-1 HAS AN ASPECT RATIO EXCEEDING 100 
             TO 1.

 ***WARNING: The aspect ratio for 33 elements exceeds 100 to 1. The elements 
             have been identified in element set WarnElemAspectRatio.

     COLLECTING STEP CONSTRAINT INFORMATION FOR OVERCONSTRAINT CHECKS


  INCREMENT     1 STARTS. ATTEMPT NUMBER  1, TIME INCREMENT   1.00    

 ***WARNING: THERE ARE 2 UNCONNECTED REGIONS IN THE MODEL.

 ***NOTE: SFM TYPE SURFACE ELEMENTS USED TO DEFINE CONTACT SURFACES NOT PART OF 
          A RIGID BODY MAY INCREASE THE NUMBER OR UNCONNECTED REGIONS REPORTED.
 
	UNSYMMETRIC NEW DIRECT SPARSE SOLVER RUNNING ON
 	1 HOST x 1 MPI RANK PER HOST x 1 THREAD PER RANK
        NUMBER OF EQUATIONS:  408
        NUMBER OF RHS:        1
        NUMBER OF FLOPS:      1.639e+05
        SOLVER ELAPSED TIME:  1ms

               CONVERGENCE CHECKS FOR EQUILIBRIUM ITERATION     1


 AVERAGE FORCE                      5.917E+09   TIME AVG. FORCE       5.917E+09
 LARGEST SCALED RESIDUAL FORCE     -2.731E+04   AT NODE         43   DOF  1
   INSTANCE: ANALISE-1-1                                                                     
  CORRESPONDING RESIDUAL FORCE     -2.731E+04
 LARGEST INCREMENT OF DISP.         3.615E-03   AT NODE        107   DOF  2
   INSTANCE: ANALISE-1-1                                                                     
 LARGEST CORRECTION TO DISP.        3.615E-03   AT NODE        107   DOF  2
   INSTANCE: ANALISE-1-1                                                                     
 ESTIMATE OF DISP.    CORRECTION    1.192E-07
 FORCE     EQUILIB. ACCEPTED BASED ON SMALL RESIDUAL AND ESTIMATED CORRECTION

 ITERATION SUMMARY FOR THE INCREMENT:   1 TOTAL ITERATIONS, OF WHICH
   0 ARE SEVERE DISCONTINUITY ITERATIONS AND  1 ARE EQUILIBRIUM ITERATIONS.

 TIME INCREMENT COMPLETED   1.00    ,  FRACTION OF STEP COMPLETED   1.00    
 STEP TIME COMPLETED        1.00    ,  TOTAL TIME COMPLETED        1.728E+05
1

   Abaqus 2024                                  Date 26-fev-2026   Time 11:12:31
   For use by PONTIFICIA UNIVERSIDADE CATOLICA DO RIO DE JANEIRO under license from Dassault Systemes or its subsidiary.

                                                                                 
                                                                                 
 STEP    7     INCREMENT     1     STEP TIME    0.00    


                        S T E P       7     V I S C O   A N A L Y S I S


                                                                                          

     AUTOMATIC TIME CONTROL WITH -
          A SUGGESTED INITIAL TIME INCREMENT OF                 1.00    
          AND A TOTAL TIME PERIOD OF                           9.459E+08
          THE MINIMUM TIME INCREMENT ALLOWED IS                1.000E-15
          THE MAXIMUM TIME INCREMENT ALLOWED IS                1.555E+07

     THE SIZE OF THE TIME INCREMENT IS CONTROLLED BY -
          THE PARAMETER  CETOL                                 1.000E-02

                              IMPLICIT TIME INTEGRATION WILL BE USED

 CONVERGENCE TOLERANCE PARAMETERS FOR FORCE    
     CRITERION FOR RESIDUAL FORCE     FOR A NONLINEAR PROBLEM          5.000E-03
     CRITERION FOR DISP.    CORRECTION IN A NONLINEAR PROBLEM          1.000E-02
     INIT. VALUE OF TIME AVG. FORCE     IS TIME AVG. FORCE     IN PREVIOUS STEP
     AVERAGE FORCE     IS TIME AVERAGE FORCE    
     ALTERNATE CRIT. FOR RESIDUAL FORCE     FOR A NONLINEAR PROBLEM    2.000E-02
     CRITERION FOR ZERO FORCE     RELATIVE TO TIME AVRG. FORCE         1.000E-05
     CRITERION FOR RESIDUAL FORCE     WHEN THERE IS ZERO FLUX          1.000E-05
     CRITERION FOR DISP.    CORRECTION WHEN THERE IS ZERO FLUX         1.000E-03
     CRITERION FOR RESIDUAL FORCE     FOR A LINEAR INCREMENT           1.000E-08
     FIELD CONVERSION RATIO                                             1.00    
     CRITERION FOR ZERO FORCE     REL. TO TIME AVRG. MAX. FORCE        1.000E-05
     CRITERION FOR ZERO DISP.    RELATIVE TO CHARACTERISTIC LENGTH     1.000E-08

     VOLUMETRIC STRAIN COMPATIBILITY TOLERANCE FOR HYBRID SOLIDS       1.000E-05
     AXIAL STRAIN COMPATIBILITY TOLERANCE FOR HYBRID BEAMS             1.000E-05
     TRANS. SHEAR STRAIN COMPATIBILITY TOLERANCE FOR HYBRID BEAMS      1.000E-05
     SOFT CONTACT CONSTRAINT COMPATIBILITY TOLERANCE FOR P>P0          5.000E-03
     SOFT CONTACT CONSTRAINT COMPATIBILITY TOLERANCE FOR P=0.0         0.100    
     CONTACT FORCE ERROR TOLERANCE FOR CONVERT SDI=YES                 1.00    
     DISPLACEMENT COMPATIBILITY TOLERANCE FOR DCOUP ELEMENTS           1.000E-05
     ROTATION COMPATIBILITY TOLERANCE FOR DCOUP ELEMENTS               1.000E-05

 EQUILIBRIUM WILL BE CHECKED FOR SEVERE DISCONTINUITY ITERATIONS

 TIME INCREMENTATION CONTROL PARAMETERS:
     FIRST EQUILIBRIUM ITERATION FOR CONSECUTIVE DIVERGENCE CHECK              4
     EQUILIBRIUM ITERATION AT WHICH LOG. CONVERGENCE RATE CHECK BEGINS         8
     EQUILIBRIUM ITERATION AFTER WHICH ALTERNATE RESIDUAL IS USED              9
     MAXIMUM EQUILIBRIUM ITERATIONS ALLOWED                                   16
     EQUILIBRIUM ITERATION COUNT FOR CUT-BACK IN NEXT INCREMENT               10
     MAXIMUM EQUILIB. ITERS IN TWO INCREMENTS FOR TIME INCREMENT INCREASE      4
[...]
        NUMBER OF RHS:        1
        NUMBER OF FLOPS:      1.639e+05
        SOLVER ELAPSED TIME:  6ms

               CONVERGENCE CHECKS FOR EQUILIBRIUM ITERATION     1


 AVERAGE FORCE                      5.917E+09   TIME AVG. FORCE       5.917E+09
 LARGEST SCALED RESIDUAL FORCE      0.656       AT NODE         83   DOF  1
   INSTANCE: ANALISE-1-1                                                                     
  CORRESPONDING RESIDUAL FORCE      0.656    
 LARGEST INCREMENT OF DISP.        -2.407E-08   AT NODE         13   DOF  1
   INSTANCE: ANALISE-1-1                                                                     
 LARGEST CORRECTION TO DISP.       -3.449E-10   AT NODE         13   DOF  1
   INSTANCE: ANALISE-1-1                                                                     
          THE FORCE     EQUILIBRIUM RESPONSE WAS LINEAR IN THIS INCREMENT

 MAXIMUM DIFFERENCE IN CREEP STRAIN INCREMENT IS   8.293E-13

 ITERATION SUMMARY FOR THE INCREMENT:   1 TOTAL ITERATIONS, OF WHICH
   0 ARE SEVERE DISCONTINUITY ITERATIONS AND  1 ARE EQUILIBRIUM ITERATIONS.

 TIME INCREMENT COMPLETED  1.555E+07,  FRACTION OF STEP COMPLETED  0.813    
 STEP TIME COMPLETED       7.690E+08,  TOTAL TIME COMPLETED        7.691E+08


  INCREMENT    80 STARTS. ATTEMPT NUMBER  1, TIME INCREMENT  1.555E+07
 
	UNSYMMETRIC NEW DIRECT SPARSE SOLVER RUNNING ON
 	1 HOST x 1 MPI RANK PER HOST x 1 THREAD PER RANK
        NUMBER OF EQUATIONS:  408
        NUMBER OF RHS:        1
        NUMBER OF FLOPS:      1.639e+05
        SOLVER ELAPSED TIME:  1ms

               CONVERGENCE CHECKS FOR EQUILIBRIUM ITERATION     1


 AVERAGE FORCE                      5.917E+09   TIME AVG. FORCE       5.917E+09
 LARGEST SCALED RESIDUAL FORCE      0.675       AT NODE         83   DOF  1
   INSTANCE: ANALISE-1-1                                                                     
  CORRESPONDING RESIDUAL FORCE      0.675    
 LARGEST INCREMENT OF DISP.        -2.441E-08   AT NODE         13   DOF  1
   INSTANCE: ANALISE-1-1                                                                     
 LARGEST CORRECTION TO DISP.       -3.427E-10   AT NODE         13   DOF  1
   INSTANCE: ANALISE-1-1                                                                     
          THE FORCE     EQUILIBRIUM RESPONSE WAS LINEAR IN THIS INCREMENT

 MAXIMUM DIFFERENCE IN CREEP STRAIN INCREMENT IS   8.529E-13

 ITERATION SUMMARY FOR THE INCREMENT:   1 TOTAL ITERATIONS, OF WHICH
   0 ARE SEVERE DISCONTINUITY ITERATIONS AND  1 ARE EQUILIBRIUM ITERATIONS.

 TIME INCREMENT COMPLETED  1.555E+07,  FRACTION OF STEP COMPLETED  0.829    
 STEP TIME COMPLETED       7.845E+08,  TOTAL TIME COMPLETED        7.847E+08


  INCREMENT    81 STARTS. ATTEMPT NUMBER  1, TIME INCREMENT  1.555E+07
 
	UNSYMMETRIC NEW DIRECT SPARSE SOLVER RUNNING ON
 	1 HOST x 1 MPI RANK PER HOST x 1 THREAD PER RANK
        NUMBER OF EQUATIONS:  408
        NUMBER OF RHS:        1
        NUMBER OF FLOPS:      1.639e+05
        SOLVER ELAPSED TIME:  4ms

               CONVERGENCE CHECKS FOR EQUILIBRIUM ITERATION     1


 AVERAGE FORCE                      5.917E+09   TIME AVG. FORCE       5.917E+09
 LARGEST SCALED RESIDUAL FORCE      0.694       AT NODE         83   DOF  1
   INSTANCE: ANALISE-1-1                                                                     
  CORRESPONDING RESIDUAL FORCE      0.694    
 LARGEST INCREMENT OF DISP.        -2.475E-08   AT NODE         13   DOF  1
   INSTANCE: ANALISE-1-1                                                                     
 LARGEST CORRECTION TO DISP.       -3.407E-10   AT NODE         13   DOF  1
   INSTANCE: ANALISE-1-1                                                                     
          THE FORCE     EQUILIBRIUM RESPONSE WAS LINEAR IN THIS INCREMENT

 MAXIMUM DIFFERENCE IN CREEP STRAIN INCREMENT IS   8.766E-13

 ITERATION SUMMARY FOR THE INCREMENT:   1 TOTAL ITERATIONS, OF WHICH
   0 ARE SEVERE DISCONTINUITY ITERATIONS AND  1 ARE EQUILIBRIUM ITERATIONS.

 TIME INCREMENT COMPLETED  1.555E+07,  FRACTION OF STEP COMPLETED  0.846    
 STEP TIME COMPLETED       8.001E+08,  TOTAL TIME COMPLETED        8.002E+08


  INCREMENT    82 STARTS. ATTEMPT NUMBER  1, TIME INCREMENT  1.555E+07
 
	UNSYMMETRIC NEW DIRECT SPARSE SOLVER RUNNING ON
 	1 HOST x 1 MPI RANK PER HOST x 1 THREAD PER RANK
        NUMBER OF EQUATIONS:  408
        NUMBER OF RHS:        1
        NUMBER OF FLOPS:      1.639e+05
        SOLVER ELAPSED TIME:  4ms

               CONVERGENCE CHECKS FOR EQUILIBRIUM ITERATION     1


 AVERAGE FORCE                      5.917E+09   TIME AVG. FORCE       5.917E+09
 LARGEST SCALED RESIDUAL FORCE      0.713       AT NODE         83   DOF  1
   INSTANCE: ANALISE-1-1                                                                     
  CORRESPONDING RESIDUAL FORCE      0.713    
 LARGEST INCREMENT OF DISP.        -2.509E-08   AT NODE         13   DOF  1
   INSTANCE: ANALISE-1-1                                                                     
 LARGEST CORRECTION TO DISP.       -3.386E-10   AT NODE         13   DOF  1
   INSTANCE: ANALISE-1-1                                                                     
          THE FORCE     EQUILIBRIUM RESPONSE WAS LINEAR IN THIS INCREMENT

 MAXIMUM DIFFERENCE IN CREEP STRAIN INCREMENT IS   9.005E-13

 ITERATION SUMMARY FOR THE INCREMENT:   1 TOTAL ITERATIONS, OF WHICH
   0 ARE SEVERE DISCONTINUITY ITERATIONS AND  1 ARE EQUILIBRIUM ITERATIONS.

 TIME INCREMENT COMPLETED  1.555E+07,  FRACTION OF STEP COMPLETED  0.862    
 STEP TIME COMPLETED       8.156E+08,  TOTAL TIME COMPLETED        8.158E+08


  INCREMENT    83 STARTS. ATTEMPT NUMBER  1, TIME INCREMENT  1.555E+07
 
	UNSYMMETRIC NEW DIRECT SPARSE SOLVER RUNNING ON
 	1 HOST x 1 MPI RANK PER HOST x 1 THREAD PER RANK
        NUMBER OF EQUATIONS:  408
        NUMBER OF RHS:        1
        NUMBER OF FLOPS:      1.639e+05
        SOLVER ELAPSED TIME:  4ms

               CONVERGENCE CHECKS FOR EQUILIBRIUM ITERATION     1


 AVERAGE FORCE                      5.917E+09   TIME AVG. FORCE       5.917E+09
 LARGEST SCALED RESIDUAL FORCE      0.732       AT NODE         83   DOF  1
   INSTANCE: ANALISE-1-1                                                                     
  CORRESPONDING RESIDUAL FORCE      0.732    
 LARGEST INCREMENT OF DISP.        -2.542E-08   AT NODE         13   DOF  1
   INSTANCE: ANALISE-1-1                                                                     
 LARGEST CORRECTION TO DISP.       -3.367E-10   AT NODE         13   DOF  1
   INSTANCE: ANALISE-1-1                                                                     
          THE FORCE     EQUILIBRIUM RESPONSE WAS LINEAR IN THIS INCREMENT

 MAXIMUM DIFFERENCE IN CREEP STRAIN INCREMENT IS   9.246E-13

 ITERATION SUMMARY FOR THE INCREMENT:   1 TOTAL ITERATIONS, OF WHICH
   0 ARE SEVERE DISCONTINUITY ITERATIONS AND  1 ARE EQUILIBRIUM ITERATIONS.

 TIME INCREMENT COMPLETED  1.555E+07,  FRACTION OF STEP COMPLETED  0.879    
 STEP TIME COMPLETED       8.312E+08,  TOTAL TIME COMPLETED        8.313E+08


  INCREMENT    84 STARTS. ATTEMPT NUMBER  1, TIME INCREMENT  1.555E+07
 
	UNSYMMETRIC NEW DIRECT SPARSE SOLVER RUNNING ON
 	1 HOST x 1 MPI RANK PER HOST x 1 THREAD PER RANK
        NUMBER OF EQUATIONS:  408
        NUMBER OF RHS:        1
        NUMBER OF FLOPS:      1.639e+05
        SOLVER ELAPSED TIME:  2ms

               CONVERGENCE CHECKS FOR EQUILIBRIUM ITERATION     1


 AVERAGE FORCE                      5.917E+09   TIME AVG. FORCE       5.917E+09
 LARGEST SCALED RESIDUAL FORCE      0.751       AT NODE         83   DOF  1
   INSTANCE: ANALISE-1-1                                                                     
  CORRESPONDING RESIDUAL FORCE      0.751    
 LARGEST INCREMENT OF DISP.        -2.576E-08   AT NODE         13   DOF  1
   INSTANCE: ANALISE-1-1                                                                     
 LARGEST CORRECTION TO DISP.       -3.348E-10   AT NODE         13   DOF  1
   INSTANCE: ANALISE-1-1                                                                     
          THE FORCE     EQUILIBRIUM RESPONSE WAS LINEAR IN THIS INCREMENT

 MAXIMUM DIFFERENCE IN CREEP STRAIN INCREMENT IS   9.489E-13

 ITERATION SUMMARY FOR THE INCREMENT:   1 TOTAL ITERATIONS, OF WHICH
   0 ARE SEVERE DISCONTINUITY ITERATIONS AND  1 ARE EQUILIBRIUM ITERATIONS.

 TIME INCREMENT COMPLETED  1.555E+07,  FRACTION OF STEP COMPLETED  0.895    
 STEP TIME COMPLETED       8.467E+08,  TOTAL TIME COMPLETED        8.469E+08


  INCREMENT    85 STARTS. ATTEMPT NUMBER  1, TIME INCREMENT  1.555E+07
 
	UNSYMMETRIC NEW DIRECT SPARSE SOLVER RUNNING ON
 	1 HOST x 1 MPI RANK PER HOST x 1 THREAD PER RANK
        NUMBER OF EQUATIONS:  408
        NUMBER OF RHS:        1
        NUMBER OF FLOPS:      1.639e+05
        SOLVER ELAPSED TIME:  1ms

               CONVERGENCE CHECKS FOR EQUILIBRIUM ITERATION     1


 AVERAGE FORCE                      5.917E+09   TIME AVG. FORCE       5.917E+09
 LARGEST SCALED RESIDUAL FORCE      0.771       AT NODE         83   DOF  1
   INSTANCE: ANALISE-1-1                                                                     
  CORRESPONDING RESIDUAL FORCE      0.771    
 LARGEST INCREMENT OF DISP.        -2.609E-08   AT NODE         13   DOF  1
   INSTANCE: ANALISE-1-1                                                                     
 LARGEST CORRECTION TO DISP.       -3.329E-10   AT NODE         13   DOF  1
   INSTANCE: ANALISE-1-1                                                                     
          THE FORCE     EQUILIBRIUM RESPONSE WAS LINEAR IN THIS INCREMENT

 MAXIMUM DIFFERENCE IN CREEP STRAIN INCREMENT IS   9.734E-13

 ITERATION SUMMARY FOR THE INCREMENT:   1 TOTAL ITERATIONS, OF WHICH
   0 ARE SEVERE DISCONTINUITY ITERATIONS AND  1 ARE EQUILIBRIUM ITERATIONS.

 TIME INCREMENT COMPLETED  1.555E+07,  FRACTION OF STEP COMPLETED  0.912    
 STEP TIME COMPLETED       8.623E+08,  TOTAL TIME COMPLETED        8.624E+08


  INCREMENT    86 STARTS. ATTEMPT NUMBER  1, TIME INCREMENT  1.555E+07
 
	UNSYMMETRIC NEW DIRECT SPARSE SOLVER RUNNING ON
 	1 HOST x 1 MPI RANK PER HOST x 1 THREAD PER RANK
        NUMBER OF EQUATIONS:  408
        NUMBER OF RHS:        1
        NUMBER OF FLOPS:      1.639e+05
        SOLVER ELAPSED TIME:  2ms

               CONVERGENCE CHECKS FOR EQUILIBRIUM ITERATION     1


 AVERAGE FORCE                      5.917E+09   TIME AVG. FORCE       5.917E+09
 LARGEST SCALED RESIDUAL FORCE      0.790       AT NODE         83   DOF  1
   INSTANCE: ANALISE-1-1                                                                     
  CORRESPONDING RESIDUAL FORCE      0.790    
 LARGEST INCREMENT OF DISP.        -2.642E-08   AT NODE         13   DOF  1
   INSTANCE: ANALISE-1-1                                                                     
 LARGEST CORRECTION TO DISP.       -3.311E-10   AT NODE         13   DOF  1
   INSTANCE: ANALISE-1-1                                                                     
          THE FORCE     EQUILIBRIUM RESPONSE WAS LINEAR IN THIS INCREMENT

 MAXIMUM DIFFERENCE IN CREEP STRAIN INCREMENT IS   9.980E-13

 ITERATION SUMMARY FOR THE INCREMENT:   1 TOTAL ITERATIONS, OF WHICH
   0 ARE SEVERE DISCONTINUITY ITERATIONS AND  1 ARE EQUILIBRIUM ITERATIONS.

 TIME INCREMENT COMPLETED  1.555E+07,  FRACTION OF STEP COMPLETED  0.928    
 STEP TIME COMPLETED       8.778E+08,  TOTAL TIME COMPLETED        8.780E+08


  INCREMENT    87 STARTS. ATTEMPT NUMBER  1, TIME INCREMENT  1.555E+07
 
	UNSYMMETRIC NEW DIRECT SPARSE SOLVER RUNNING ON
 	1 HOST x 1 MPI RANK PER HOST x 1 THREAD PER RANK
        NUMBER OF EQUATIONS:  408
        NUMBER OF RHS:        1
        NUMBER OF FLOPS:      1.639e+05
        SOLVER ELAPSED TIME:  4ms

               CONVERGENCE CHECKS FOR EQUILIBRIUM ITERATION     1


 AVERAGE FORCE                      5.917E+09   TIME AVG. FORCE       5.917E+09
 LARGEST SCALED RESIDUAL FORCE      0.810       AT NODE         83   DOF  1
   INSTANCE: ANALISE-1-1                                                                     
  CORRESPONDING RESIDUAL FORCE      0.810    
 LARGEST INCREMENT OF DISP.        -2.675E-08   AT NODE         13   DOF  1
   INSTANCE: ANALISE-1-1                                                                     
 LARGEST CORRECTION TO DISP.       -3.293E-10   AT NODE         13   DOF  1
   INSTANCE: ANALISE-1-1                                                                     
          THE FORCE     EQUILIBRIUM RESPONSE WAS LINEAR IN THIS INCREMENT

 MAXIMUM DIFFERENCE IN CREEP STRAIN INCREMENT IS   1.023E-12

 ITERATION SUMMARY FOR THE INCREMENT:   1 TOTAL ITERATIONS, OF WHICH
   0 ARE SEVERE DISCONTINUITY ITERATIONS AND  1 ARE EQUILIBRIUM ITERATIONS.

 TIME INCREMENT COMPLETED  1.555E+07,  FRACTION OF STEP COMPLETED  0.944    
 STEP TIME COMPLETED       8.934E+08,  TOTAL TIME COMPLETED        8.935E+08


  INCREMENT    88 STARTS. ATTEMPT NUMBER  1, TIME INCREMENT  1.555E+07
 
	UNSYMMETRIC NEW DIRECT SPARSE SOLVER RUNNING ON
 	1 HOST x 1 MPI RANK PER HOST x 1 THREAD PER RANK
        NUMBER OF EQUATIONS:  408
        NUMBER OF RHS:        1
        NUMBER OF FLOPS:      1.639e+05
        SOLVER ELAPSED TIME:  4ms

               CONVERGENCE CHECKS FOR EQUILIBRIUM ITERATION     1


 AVERAGE FORCE                      5.917E+09   TIME AVG. FORCE       5.917E+09
 LARGEST SCALED RESIDUAL FORCE      0.830       AT NODE         83   DOF  1
   INSTANCE: ANALISE-1-1                                                                     
  CORRESPONDING RESIDUAL FORCE      0.830    
 LARGEST INCREMENT OF DISP.        -2.708E-08   AT NODE         13   DOF  1
   INSTANCE: ANALISE-1-1                                                                     
 LARGEST CORRECTION TO DISP.       -3.275E-10   AT NODE         13   DOF  1
   INSTANCE: ANALISE-1-1                                                                     
          THE FORCE     EQUILIBRIUM RESPONSE WAS LINEAR IN THIS INCREMENT

 MAXIMUM DIFFERENCE IN CREEP STRAIN INCREMENT IS   1.048E-12

 ITERATION SUMMARY FOR THE INCREMENT:   1 TOTAL ITERATIONS, OF WHICH
   0 ARE SEVERE DISCONTINUITY ITERATIONS AND  1 ARE EQUILIBRIUM ITERATIONS.

 TIME INCREMENT COMPLETED  1.555E+07,  FRACTION OF STEP COMPLETED  0.961    
 STEP TIME COMPLETED       9.089E+08,  TOTAL TIME COMPLETED        9.091E+08


  INCREMENT    89 STARTS. ATTEMPT NUMBER  1, TIME INCREMENT  1.555E+07
 
	UNSYMMETRIC NEW DIRECT SPARSE SOLVER RUNNING ON
 	1 HOST x 1 MPI RANK PER HOST x 1 THREAD PER RANK
        NUMBER OF EQUATIONS:  408
        NUMBER OF RHS:        1
        NUMBER OF FLOPS:      1.639e+05
        SOLVER ELAPSED TIME:  6ms

               CONVERGENCE CHECKS FOR EQUILIBRIUM ITERATION     1


 AVERAGE FORCE                      5.917E+09   TIME AVG. FORCE       5.917E+09
 LARGEST SCALED RESIDUAL FORCE      0.850       AT NODE         83   DOF  1
   INSTANCE: ANALISE-1-1                                                                     
  CORRESPONDING RESIDUAL FORCE      0.850    
 LARGEST INCREMENT OF DISP.        -2.741E-08   AT NODE         13   DOF  1
   INSTANCE: ANALISE-1-1                                                                     
 LARGEST CORRECTION TO DISP.       -3.258E-10   AT NODE         13   DOF  1
   INSTANCE: ANALISE-1-1                                                                     
          THE FORCE     EQUILIBRIUM RESPONSE WAS LINEAR IN THIS INCREMENT

 MAXIMUM DIFFERENCE IN CREEP STRAIN INCREMENT IS   1.073E-12

 ITERATION SUMMARY FOR THE INCREMENT:   1 TOTAL ITERATIONS, OF WHICH
   0 ARE SEVERE DISCONTINUITY ITERATIONS AND  1 ARE EQUILIBRIUM ITERATIONS.

 TIME INCREMENT COMPLETED  1.555E+07,  FRACTION OF STEP COMPLETED  0.977    
 STEP TIME COMPLETED       9.245E+08,  TOTAL TIME COMPLETED        9.247E+08


  INCREMENT    90 STARTS. ATTEMPT NUMBER  1, TIME INCREMENT  1.555E+07
 
	UNSYMMETRIC NEW DIRECT SPARSE SOLVER RUNNING ON
 	1 HOST x 1 MPI RANK PER HOST x 1 THREAD PER RANK
        NUMBER OF EQUATIONS:  408
        NUMBER OF RHS:        1
        NUMBER OF FLOPS:      1.639e+05
        SOLVER ELAPSED TIME:  2ms

               CONVERGENCE CHECKS FOR EQUILIBRIUM ITERATION     1


 AVERAGE FORCE                      5.917E+09   TIME AVG. FORCE       5.917E+09
 LARGEST SCALED RESIDUAL FORCE      0.870       AT NODE         83   DOF  1
   INSTANCE: ANALISE-1-1                                                                     
  CORRESPONDING RESIDUAL FORCE      0.870    
 LARGEST INCREMENT OF DISP.        -2.773E-08   AT NODE         13   DOF  1
   INSTANCE: ANALISE-1-1                                                                     
 LARGEST CORRECTION TO DISP.       -3.241E-10   AT NODE         13   DOF  1
   INSTANCE: ANALISE-1-1                                                                     
          THE FORCE     EQUILIBRIUM RESPONSE WAS LINEAR IN THIS INCREMENT

 MAXIMUM DIFFERENCE IN CREEP STRAIN INCREMENT IS   1.098E-12

 ITERATION SUMMARY FOR THE INCREMENT:   1 TOTAL ITERATIONS, OF WHICH
   0 ARE SEVERE DISCONTINUITY ITERATIONS AND  1 ARE EQUILIBRIUM ITERATIONS.

 TIME INCREMENT COMPLETED  1.555E+07,  FRACTION OF STEP COMPLETED  0.994    
 STEP TIME COMPLETED       9.400E+08,  TOTAL TIME COMPLETED        9.402E+08


  INCREMENT    91 STARTS. ATTEMPT NUMBER  1, TIME INCREMENT  5.875E+06
 
	UNSYMMETRIC NEW DIRECT SPARSE SOLVER RUNNING ON
 	1 HOST x 1 MPI RANK PER HOST x 1 THREAD PER RANK
        NUMBER OF EQUATIONS:  408
        NUMBER OF RHS:        1
        NUMBER OF FLOPS:      1.639e+05
        SOLVER ELAPSED TIME:  1ms

               CONVERGENCE CHECKS FOR EQUILIBRIUM ITERATION     1


 AVERAGE FORCE                      5.917E+09   TIME AVG. FORCE       5.917E+09
 LARGEST SCALED RESIDUAL FORCE      0.126       AT NODE         83   DOF  1
   INSTANCE: ANALISE-1-1                                                                     
  CORRESPONDING RESIDUAL FORCE      0.126    
 LARGEST INCREMENT OF DISP.        -1.056E-08   AT NODE         13   DOF  1
   INSTANCE: ANALISE-1-1                                                                     
 LARGEST CORRECTION TO DISP.       -8.375E-11   AT NODE         13   DOF  1
   INSTANCE: ANALISE-1-1                                                                     
          THE FORCE     EQUILIBRIUM RESPONSE WAS LINEAR IN THIS INCREMENT

 MAXIMUM DIFFERENCE IN CREEP STRAIN INCREMENT IS   1.587E-13

 ITERATION SUMMARY FOR THE INCREMENT:   1 TOTAL ITERATIONS, OF WHICH
   0 ARE SEVERE DISCONTINUITY ITERATIONS AND  1 ARE EQUILIBRIUM ITERATIONS.

 TIME INCREMENT COMPLETED  5.875E+06,  FRACTION OF STEP COMPLETED   1.00    
 STEP TIME COMPLETED       9.459E+08,  TOTAL TIME COMPLETED        9.461E+08


          THE ANALYSIS HAS BEEN COMPLETED



     ANALYSIS SUMMARY:
     TOTAL OF        119  INCREMENTS
                       0  CUTBACKS IN AUTOMATIC INCREMENTATION
                     119  ITERATIONS INCLUDING CONTACT ITERATIONS IF PRESENT
                     119  PASSES THROUGH THE EQUATION SOLVER OF WHICH 
                     119  INVOLVE MATRIX DECOMPOSITION, INCLUDING
                       0  DECOMPOSITION(S) OF THE MASS MATRIX
                       1  REORDERING OF EQUATIONS TO MINIMIZE WAVEFRONT
                       0  ADDITIONAL RESIDUAL EVALUATIONS FOR LINE SEARCHES
                       0  ADDITIONAL OPERATOR EVALUATIONS FOR LINE SEARCHES
                      25  WARNING MESSAGES DURING USER INPUT PROCESSING
                      41  WARNING MESSAGES DURING ANALYSIS
                       0  ANALYSIS WARNINGS ARE NUMERICAL PROBLEM MESSAGES
                       0  ANALYSIS WARNINGS ARE NEGATIVE EIGENVALUE MESSAGES
                       0  ERROR MESSAGES



     JOB TIME SUMMARY
       USER TIME (SEC)      =      2.3    
       SYSTEM TIME (SEC)    =     0.30    
       TOTAL CPU TIME (SEC) =      2.6    
       WALLCLOCK TIME (SEC) =            3
       MEMORY PEAK (GB)     =            0
